
OS:Version,
  {3e4f0de6-ce29-404d-8256-56958d461494}, !- Handle
  3.8.0;                                  !- Version Identifier

OS:Schedule:Constant,
  {860d6285-c6f3-46cb-9acd-be1f1a94481e}, !- Handle
  Always On Discrete,                     !- Name
  {14d9b91f-5f4d-40fb-b5c7-f84d2b307fd4}, !- Schedule Type Limits Name
  1;                                      !- Value

OS:ScheduleTypeLimits,
  {14d9b91f-5f4d-40fb-b5c7-f84d2b307fd4}, !- Handle
  Always On Discrete Limits,              !- Name
  0,                                      !- Lower Limit Value
  1,                                      !- Upper Limit Value
  Discrete,                               !- Numeric Type
  Availability;                           !- Unit Type

OS:Site,
  {f981f642-f645-4184-90ea-54ecb81181a3}, !- Handle
  Denver Centennial  Golden   Nr_CO_USA,  !- Name
  39.74,                                  !- Latitude {deg}
  -105.18,                                !- Longitude {deg}
  -7,                                     !- Time Zone {hr}
  1829,                                   !- Elevation {m}
  City;                                   !- Terrain

OS:YearDescription,
  {286d52b4-ac67-4922-b45b-e99be1b2fa25}, !- Handle
  2020,                                   !- Calendar Year
  ,                                       !- Day of Week for Start Day
  ;                                       !- Is Leap Year

OS:ClimateZones,
  {ed807fb1-d8cc-4fe4-81f9-ecc4a3e663b3}, !- Handle
  ASHRAE,                                 !- Climate Zone Institution Name 1
  ANSI/ASHRAE Standard 169,               !- Climate Zone Document Name 1
  2006,                                   !- Climate Zone Document Year 1
  5B;                                     !- Climate Zone Value 1

OS:Facility,
  {5874d766-9013-445a-b7ba-fbc18548d936}; !- Handle

OS:SimulationControl,
  {58c08c90-257a-4c48-bac8-bc48284aa3da}, !- Handle
  Yes,                                    !- Do Zone Sizing Calculation
  Yes,                                    !- Do System Sizing Calculation
  Yes,                                    !- Do Plant Sizing Calculation
  No,                                     !- Run Simulation for Sizing Periods
  Yes,                                    !- Run Simulation for Weather File Run Periods
  ,                                       !- Loads Convergence Tolerance Value {W}
  ,                                       !- Temperature Convergence Tolerance Value {deltaC}
  ,                                       !- Solar Distribution
  ,                                       !- Maximum Number of Warmup Days
  ,                                       !- Minimum Number of Warmup Days
  No,                                     !- Do HVAC Sizing Simulation for Sizing Periods
  1;                                      !- Maximum Number of HVAC Sizing Simulation Passes

OS:Sizing:Parameters,
  {b7f8e5e5-194f-46fb-b696-bf8dbd94d2a1}, !- Handle
  1.25,                                   !- Heating Sizing Factor
  1.15;                                   !- Cooling Sizing Factor

OS:Timestep,
  {7d9cdc89-f88b-48bc-a911-5c24839f5e0f}, !- Handle
  4;                                      !- Number of Timesteps per Hour

OS:ShadowCalculation,
  {4b4398c9-7698-4d5a-8651-280bd02def9b}, !- Handle
  PolygonClipping,                        !- Shading Calculation Method
  ,                                       !- Shading Calculation Update Frequency Method
  20,                                     !- Shading Calculation Update Frequency
  15000,                                  !- Maximum Figures in Shadow Overlap Calculations
  ,                                       !- Polygon Clipping Algorithm
  512,                                    !- Pixel Counting Resolution
  ,                                       !- Sky Diffuse Modeling Algorithm
  No,                                     !- Output External Shading Calculation Results
  No,                                     !- Disable Self-Shading Within Shading Zone Groups
  No;                                     !- Disable Self-Shading From Shading Zone Groups to Other Zones

OS:HeatBalanceAlgorithm,
  {f1ec6801-7d3f-453f-82f7-4587187226a7}, !- Handle
  ConductionTransferFunction,             !- Algorithm
  200;                                    !- Surface Temperature Upper Limit {C}

OS:RunPeriod,
  {61a69a03-a8f4-4d0f-85db-6c628a82e2d2}, !- Handle
  Run Period 1,                           !- Name
  1,                                      !- Begin Month
  1,                                      !- Begin Day of Month
  12,                                     !- End Month
  31,                                     !- End Day of Month
  ,                                       !- Use Weather File Holidays and Special Days
  ,                                       !- Use Weather File Daylight Saving Period
  ,                                       !- Apply Weekend Holiday Rule
  ,                                       !- Use Weather File Rain Indicators
  ,                                       !- Use Weather File Snow Indicators
  ;                                       !- Number of Times Runperiod to be Repeated

OS:LifeCycleCost:Parameters,
  {4156312f-45ac-41e1-8bda-ebb07868e9db}, !- Handle
  ,                                       !- Analysis Type
  ,                                       !- Discounting Convention
  ,                                       !- Inflation Approach
  ,                                       !- Real Discount Rate
  ,                                       !- Nominal Discount Rate
  ,                                       !- Inflation
  ,                                       !- Base Date Month
  ,                                       !- Base Date Year
  ,                                       !- Service Date Month
  ,                                       !- Service Date Year
  ;                                       !- Length of Study Period in Years

OS:RadianceParameters,
  {8262416c-3366-49be-b850-c8bf2a2e2f67}, !- Handle
  1,                                      !- Accumulated Rays per Record
  0,                                      !- Direct Threshold
  1,                                      !- Direct Certainty
  1,                                      !- Direct Jitter
  1,                                      !- Direct Pretest
  6,                                      !- Ambient Bounces VMX
  2,                                      !- Ambient Bounces DMX
  4050,                                   !- Ambient Divisions VMX
  512,                                    !- Ambient Divisions DMX
  256,                                    !- Ambient Supersamples
  0.001,                                  !- Limit Weight VMX
  0.001,                                  !- Limit Weight DMX
  500,                                    !- Klems Sampling Density
  146;                                    !- Sky Discretization Resolution

OS:ProgramControl,
  {6d15cd07-035c-45d0-a623-671450c718a3}; !- Handle

OS:OutputControl:ReportingTolerances,
  {91c73e89-784b-4867-bb28-b609a56b8e48}, !- Handle
  0.555555555555556,                      !- Tolerance for Time Heating Setpoint Not Met {deltaC}
  0.555555555555556;                      !- Tolerance for Time Cooling Setpoint Not Met {deltaC}

OS:ConvergenceLimits,
  {cb6bfab2-74c1-4485-b99c-995538d2528f}, !- Handle
  1;                                      !- Minimum System Timestep {minutes}

OS:SurfaceConvectionAlgorithm:Inside,
  {11ad18dd-d471-48ef-88d9-46efb5216de6}, !- Handle
  TARP;                                   !- Algorithm

OS:SurfaceConvectionAlgorithm:Outside,
  {0c1f02f4-28af-46a7-ac53-41fe3fc66141}, !- Handle
  DOE-2;                                  !- Algorithm

OS:ZoneAirHeatBalanceAlgorithm,
  {fa5733e2-b532-4919-a72b-426a91d73b12}, !- Handle
  ThirdOrderBackwardDifference,           !- Algorithm
  ,                                       !- Do Space Heat Balance for Sizing
  ;                                       !- Do Space Heat Balance for Simulation

OS:ZoneAirContaminantBalance,
  {51670a9b-9ae9-42fe-8f9f-02eb7c714cb1}; !- Handle

OS:ZoneCapacitanceMultiplier:ResearchSpecial,
  {c4dc60a1-e8fc-4026-b715-51487c3784e6}, !- Handle
  ,                                       !- Temperature Capacity Multiplier
  ,                                       !- Humidity Capacity Multiplier
  ;                                       !- Carbon Dioxide Capacity Multiplier

OS:WeatherFile,
  {9cb66823-405d-4ddd-8aa2-1a15ba723eb8}, !- Handle
  Denver Centennial  Golden   Nr,         !- City
  CO,                                     !- State Province Region
  USA,                                    !- Country
  TMY3,                                   !- Data Source
  724666,                                 !- WMO Number
  39.74,                                  !- Latitude {deg}
  -105.18,                                !- Longitude {deg}
  -7,                                     !- Time Zone {hr}
  1829,                                   !- Elevation {m}
  /Users/dgoldwas/Documents/github/nrel/osw2osa/weather/NREL_TMY2020.epw, !- Url
  ;                                       !- Checksum

OS:Site:WaterMainsTemperature,
  {a40a82f2-964c-4afb-a505-de0511573bb1}, !- Handle
  Correlation,                            !- Calculation Method
  ,                                       !- Temperature Schedule Name
  10.8,                                   !- Annual Average Outdoor Air Temperature {C}
  23.2;                                   !- Maximum Difference In Monthly Average Outdoor Air Temperatures {deltaC}

OS:SizingPeriod:DesignDay,
  {966baac7-7327-44a5-9065-29682a792b50}, !- Handle
  Denver Intl Ap Ann Clg .4% Condns DB=>MWB 1, !- Name
  34.6,                                   !- Maximum Dry-Bulb Temperature {C}
  15.2,                                   !- Daily Dry-Bulb Temperature Range {deltaC}
  83011,                                  !- Barometric Pressure {Pa}
  4.2,                                    !- Wind Speed {m/s}
  80,                                     !- Wind Direction {deg}
  ,                                       !- Sky Clearness
  No,                                     !- Rain Indicator
  No,                                     !- Snow Indicator
  21,                                     !- Day of Month
  7,                                      !- Month
  SummerDesignDay,                        !- Day Type
  No,                                     !- Daylight Saving Time Indicator
  Wetbulb,                                !- Humidity Condition Type
  ,                                       !- Humidity Condition Day Schedule Name
  15.7,                                   !- Wetbulb or DewPoint at Maximum Dry-Bulb {C}
  ,                                       !- Humidity Ratio at Maximum Dry-Bulb {kgWater/kgDryAir}
  ,                                       !- Enthalpy at Maximum Dry-Bulb {J/kg}
  DefaultMultipliers,                     !- Dry-Bulb Temperature Range Modifier Type
  ,                                       !- Dry-Bulb Temperature Range Modifier Day Schedule Name
  ASHRAETau,                              !- Solar Model Indicator
  ,                                       !- Beam Solar Day Schedule Name
  ,                                       !- Diffuse Solar Day Schedule Name
  0.424,                                  !- ASHRAE Clear Sky Optical Depth for Beam Irradiance {dimensionless}
  2.012;                                  !- ASHRAE Clear Sky Optical Depth for Diffuse Irradiance {dimensionless}

OS:SizingPeriod:DesignDay,
  {4710809b-69d4-47db-afc0-35c609418940}, !- Handle
  Denver Intl Ap Ann Clg .4% Condns WB=>MDB 1, !- Name
  27.3,                                   !- Maximum Dry-Bulb Temperature {C}
  15.2,                                   !- Daily Dry-Bulb Temperature Range {deltaC}
  83011,                                  !- Barometric Pressure {Pa}
  4.2,                                    !- Wind Speed {m/s}
  80,                                     !- Wind Direction {deg}
  ,                                       !- Sky Clearness
  No,                                     !- Rain Indicator
  No,                                     !- Snow Indicator
  21,                                     !- Day of Month
  7,                                      !- Month
  SummerDesignDay,                        !- Day Type
  No,                                     !- Daylight Saving Time Indicator
  Wetbulb,                                !- Humidity Condition Type
  ,                                       !- Humidity Condition Day Schedule Name
  18.3,                                   !- Wetbulb or DewPoint at Maximum Dry-Bulb {C}
  ,                                       !- Humidity Ratio at Maximum Dry-Bulb {kgWater/kgDryAir}
  ,                                       !- Enthalpy at Maximum Dry-Bulb {J/kg}
  DefaultMultipliers,                     !- Dry-Bulb Temperature Range Modifier Type
  ,                                       !- Dry-Bulb Temperature Range Modifier Day Schedule Name
  ASHRAETau,                              !- Solar Model Indicator
  ,                                       !- Beam Solar Day Schedule Name
  ,                                       !- Diffuse Solar Day Schedule Name
  0.424,                                  !- ASHRAE Clear Sky Optical Depth for Beam Irradiance {dimensionless}
  2.012;                                  !- ASHRAE Clear Sky Optical Depth for Diffuse Irradiance {dimensionless}

OS:SizingPeriod:DesignDay,
  {b39131bf-1234-484f-ac5d-acea317b5c9e}, !- Handle
  Denver Intl Ap Ann Htg 99.6% Condns DB 1, !- Name
  -17.4,                                  !- Maximum Dry-Bulb Temperature {C}
  0,                                      !- Daily Dry-Bulb Temperature Range {deltaC}
  83011,                                  !- Barometric Pressure {Pa}
  3.3,                                    !- Wind Speed {m/s}
  160,                                    !- Wind Direction {deg}
  0,                                      !- Sky Clearness
  No,                                     !- Rain Indicator
  No,                                     !- Snow Indicator
  21,                                     !- Day of Month
  12,                                     !- Month
  WinterDesignDay,                        !- Day Type
  No,                                     !- Daylight Saving Time Indicator
  Wetbulb,                                !- Humidity Condition Type
  ,                                       !- Humidity Condition Day Schedule Name
  -17.4,                                  !- Wetbulb or DewPoint at Maximum Dry-Bulb {C}
  ,                                       !- Humidity Ratio at Maximum Dry-Bulb {kgWater/kgDryAir}
  ,                                       !- Enthalpy at Maximum Dry-Bulb {J/kg}
  DefaultMultipliers,                     !- Dry-Bulb Temperature Range Modifier Type
  ,                                       !- Dry-Bulb Temperature Range Modifier Day Schedule Name
  ASHRAEClearSky;                         !- Solar Model Indicator

OS:Building,
  {207c9221-81cc-41ef-a894-c4763469b51f}, !- Handle
  Building 1,                             !- Name
  ,                                       !- Building Sector Type
  ,                                       !- North Axis {deg}
  ,                                       !- Nominal Floor to Floor Height {m}
  ,                                       !- Space Type Name
  {5d2e448c-271f-43c6-b324-98eebec7fe33}, !- Default Construction Set Name
  ,                                       !- Default Schedule Set Name
  ,                                       !- Standards Number of Stories
  ,                                       !- Standards Number of Above Ground Stories
  ,                                       !- Standards Template
  Laboratory;                             !- Standards Building Type

OS:SpaceType,
  {5507d2d4-aac8-428b-ba9f-3bb4b878d25d}, !- Handle
  Laboratory Equipment corridor - ComStock 90.1-2016, !- Name
  ,                                       !- Default Construction Set Name
  {62ee7a5b-442c-424a-b8cc-cafa5c822993}, !- Default Schedule Set Name
  ,                                       !- Group Rendering Name
  {876e0daa-b69d-4b45-b0f6-36be29b31cf8}, !- Design Specification Outdoor Air Object Name
  ,                                       !- Standards Template
  Laboratory,                             !- Standards Building Type
  Equipment corridor;                     !- Standards Space Type

OS:SpaceType,
  {88033962-2128-4a22-bc4d-a99ffab3a476}, !- Handle
  Laboratory Lab with fume hood - ComStock 90.1-2016, !- Name
  ,                                       !- Default Construction Set Name
  {7d9d2a49-b457-4605-99c1-352a42e649f4}, !- Default Schedule Set Name
  ,                                       !- Group Rendering Name
  {2c2887ce-86c5-47bc-b8ae-ae13a139a50f}, !- Design Specification Outdoor Air Object Name
  ,                                       !- Standards Template
  Laboratory,                             !- Standards Building Type
  Lab with fume hood;                     !- Standards Space Type

OS:SpaceType,
  {b6ea9123-9191-4fbf-a9d9-fa652db5746a}, !- Handle
  Laboratory Open lab - ComStock 90.1-2016, !- Name
  ,                                       !- Default Construction Set Name
  {c2b71134-a1c8-4a35-9746-e38fc6afd82b}, !- Default Schedule Set Name
  ,                                       !- Group Rendering Name
  {bbafdd0b-5240-4826-ae36-58d1e880cd29}, !- Design Specification Outdoor Air Object Name
  ,                                       !- Standards Template
  Laboratory,                             !- Standards Building Type
  Open lab;                               !- Standards Space Type

OS:SpaceType,
  {3e60b743-0b42-4340-bec4-7500ffee973d}, !- Handle
  Laboratory Office - ComStock 90.1-2016, !- Name
  ,                                       !- Default Construction Set Name
  {3712591d-96e8-4ad8-8209-84363728ab2a}, !- Default Schedule Set Name
  ,                                       !- Group Rendering Name
  {b7ce44d8-fabf-4db2-96ab-b864edd2c5e2}, !- Design Specification Outdoor Air Object Name
  ,                                       !- Standards Template
  Laboratory,                             !- Standards Building Type
  Office;                                 !- Standards Space Type

OS:BuildingStory,
  {645a989c-e5f2-4da7-b2da-da1863a450b4}, !- Handle
  Story ground,                           !- Name
  0,                                      !- Nominal Z Coordinate {m}
  6.096,                                  !- Nominal Floor to Floor Height {m}
  ,                                       !- Default Construction Set Name
  ,                                       !- Default Schedule Set Name
  ;                                       !- Group Rendering Name

OS:Space,
  {6a377f93-14d3-4936-ba0e-fb20f0a8f00d}, !- Handle
  Laboratory Open lab A end_a - Story ground, !- Name
  {b6ea9123-9191-4fbf-a9d9-fa652db5746a}, !- Space Type Name
  ,                                       !- Default Construction Set Name
  ,                                       !- Default Schedule Set Name
  -0,                                     !- Direction of Relative North {deg}
  -51.1165139656452,                      !- X Origin {m}
  -22.7184506513979,                      !- Y Origin {m}
  0,                                      !- Z Origin {m}
  {645a989c-e5f2-4da7-b2da-da1863a450b4}, !- Building Story Name
  {406c502c-4422-496d-9da5-ea27465d0ac8}; !- Thermal Zone Name

OS:Surface,
  {6627a9eb-4cd9-47bc-89ff-cdbf7ea24c07}, !- Handle
  Surface 1,                              !- Name
  Floor,                                  !- Surface Type
  {d2cff2fd-2c65-4715-85e1-c2d4fc87b778}, !- Construction Name
  {6a377f93-14d3-4936-ba0e-fb20f0a8f00d}, !- Space Name
  GroundFCfactorMethod,                   !- Outside Boundary Condition
  ,                                       !- Outside Boundary Condition Object
  NoSun,                                  !- Sun Exposure
  NoWind,                                 !- Wind Exposure
  ,                                       !- View Factor to Ground
  ,                                       !- Number of Vertices
  0, -3.90798504668055e-14, 0,            !- X,Y,Z Vertex 1 {m}
  0, 4.57199999999996, 0,                 !- X,Y,Z Vertex 2 {m}
  4.572, 4.57199999999996, 0,             !- X,Y,Z Vertex 3 {m}
  4.572, -3.90798504668055e-14, 0;        !- X,Y,Z Vertex 4 {m}

OS:Surface,
  {f9e5a1c3-6e22-41c8-985e-930ffa673cde}, !- Handle
  Surface 2,                              !- Name
  Wall,                                   !- Surface Type
  ,                                       !- Construction Name
  {6a377f93-14d3-4936-ba0e-fb20f0a8f00d}, !- Space Name
  Outdoors,                               !- Outside Boundary Condition
  ,                                       !- Outside Boundary Condition Object
  SunExposed,                             !- Sun Exposure
  WindExposed,                            !- Wind Exposure
  ,                                       !- View Factor to Ground
  ,                                       !- Number of Vertices
  0, -3.90798504668055e-14, 6.096,        !- X,Y,Z Vertex 1 {m}
  0, 4.57199999999996, 6.096,             !- X,Y,Z Vertex 2 {m}
  0, 4.57199999999996, 0,                 !- X,Y,Z Vertex 3 {m}
  0, -3.90798504668055e-14, 0;            !- X,Y,Z Vertex 4 {m}

OS:Surface,
  {bebb47d1-e713-4a20-bff0-ea4bed2d686e}, !- Handle
  Surface 3,                              !- Name
  Wall,                                   !- Surface Type
  ,                                       !- Construction Name
  {6a377f93-14d3-4936-ba0e-fb20f0a8f00d}, !- Space Name
  Surface,                                !- Outside Boundary Condition
  {1f1c1835-6a06-4a83-9d48-d502ac768e02}, !- Outside Boundary Condition Object
  NoSun,                                  !- Sun Exposure
  NoWind,                                 !- Wind Exposure
  ,                                       !- View Factor to Ground
  ,                                       !- Number of Vertices
  4.572, 4.57199999999996, 6.096,         !- X,Y,Z Vertex 1 {m}
  4.572, 4.57199999999996, 0,             !- X,Y,Z Vertex 2 {m}
  0, 4.57199999999996, 0,                 !- X,Y,Z Vertex 3 {m}
  0, 4.57199999999996, 6.096;             !- X,Y,Z Vertex 4 {m}

OS:Surface,
  {abf69512-f2bd-41b4-bc0e-eebe14bc421c}, !- Handle
  Surface 4,                              !- Name
  Wall,                                   !- Surface Type
  ,                                       !- Construction Name
  {6a377f93-14d3-4936-ba0e-fb20f0a8f00d}, !- Space Name
  Surface,                                !- Outside Boundary Condition
  {4e483233-c2e8-424d-98be-78209b0242c3}, !- Outside Boundary Condition Object
  NoSun,                                  !- Sun Exposure
  NoWind,                                 !- Wind Exposure
  ,                                       !- View Factor to Ground
  ,                                       !- Number of Vertices
  4.572, -3.90798504668055e-14, 6.096,    !- X,Y,Z Vertex 1 {m}
  4.572, -3.90798504668055e-14, 0,        !- X,Y,Z Vertex 2 {m}
  4.572, 4.57199999999996, 0,             !- X,Y,Z Vertex 3 {m}
  4.572, 4.57199999999996, 6.096;         !- X,Y,Z Vertex 4 {m}

OS:Surface,
  {618579eb-80f0-4e5e-8ad7-2a4e53250bd4}, !- Handle
  Surface 5,                              !- Name
  Wall,                                   !- Surface Type
  ,                                       !- Construction Name
  {6a377f93-14d3-4936-ba0e-fb20f0a8f00d}, !- Space Name
  Outdoors,                               !- Outside Boundary Condition
  ,                                       !- Outside Boundary Condition Object
  SunExposed,                             !- Sun Exposure
  WindExposed,                            !- Wind Exposure
  ,                                       !- View Factor to Ground
  ,                                       !- Number of Vertices
  4.572, -3.90798504668055e-14, 6.096,    !- X,Y,Z Vertex 1 {m}
  0, -3.90798504668055e-14, 6.096,        !- X,Y,Z Vertex 2 {m}
  0, -3.90798504668055e-14, 0,            !- X,Y,Z Vertex 3 {m}
  4.572, -3.90798504668055e-14, 0;        !- X,Y,Z Vertex 4 {m}

OS:Surface,
  {de5e9994-edd2-472b-98c2-4ac8c13b15c9}, !- Handle
  Surface 6,                              !- Name
  RoofCeiling,                            !- Surface Type
  {98a5543a-23ec-4396-beec-c112b6c6ef48}, !- Construction Name
  {6a377f93-14d3-4936-ba0e-fb20f0a8f00d}, !- Space Name
  Adiabatic,                              !- Outside Boundary Condition
  ,                                       !- Outside Boundary Condition Object
  NoSun,                                  !- Sun Exposure
  NoWind,                                 !- Wind Exposure
  ,                                       !- View Factor to Ground
  ,                                       !- Number of Vertices
  4.572, -3.90798504668055e-14, 6.096,    !- X,Y,Z Vertex 1 {m}
  4.572, 4.57199999999996, 6.096,         !- X,Y,Z Vertex 2 {m}
  0, 4.57199999999996, 6.096,             !- X,Y,Z Vertex 3 {m}
  0, -3.90798504668055e-14, 6.096;        !- X,Y,Z Vertex 4 {m}

OS:ThermalZone,
  {406c502c-4422-496d-9da5-ea27465d0ac8}, !- Handle
  Zone Laboratory Open lab A end_a - Story ground, !- Name
  1,                                      !- Multiplier
  ,                                       !- Ceiling Height {m}
  ,                                       !- Volume {m3}
  ,                                       !- Floor Area {m2}
  ,                                       !- Zone Inside Convection Algorithm
  ,                                       !- Zone Outside Convection Algorithm
  ,                                       !- Zone Conditioning Equipment List Name
  {447e16dc-563d-4765-9234-104c2703b714}, !- Zone Air Inlet Port List
  {78996e07-652e-408f-a73f-0a723c949b3c}, !- Zone Air Exhaust Port List
  {6d3b5a0b-3172-49b0-9fc8-8d037e932565}, !- Zone Air Node Name
  {9a036842-c64e-4b5e-8457-aa12fc57c8cc}, !- Zone Return Air Port List
  ,                                       !- Primary Daylighting Control Name
  ,                                       !- Fraction of Zone Controlled by Primary Daylighting Control
  ,                                       !- Secondary Daylighting Control Name
  ,                                       !- Fraction of Zone Controlled by Secondary Daylighting Control
  ,                                       !- Illuminance Map Name
  ,                                       !- Group Rendering Name
  {489369ba-9e3f-4fe6-95bc-f7156e832f03}, !- Thermostat Name
  No;                                     !- Use Ideal Air Loads

OS:Node,
  {61562778-89c7-4c8b-afce-3866dca95100}, !- Handle
  Zone Laboratory Open lab A end_a - Story ground Zone Air Node, !- Name
  {6d3b5a0b-3172-49b0-9fc8-8d037e932565}, !- Inlet Port
  ;                                       !- Outlet Port

OS:Connection,
  {6d3b5a0b-3172-49b0-9fc8-8d037e932565}, !- Handle
  {406c502c-4422-496d-9da5-ea27465d0ac8}, !- Source Object
  11,                                     !- Outlet Port
  {61562778-89c7-4c8b-afce-3866dca95100}, !- Target Object
  2;                                      !- Inlet Port

OS:PortList,
  {447e16dc-563d-4765-9234-104c2703b714}, !- Handle
  {406c502c-4422-496d-9da5-ea27465d0ac8}, !- HVAC Component
  {6d7c569e-5427-474e-9a65-a3a89b346fff}; !- Port 1

OS:PortList,
  {78996e07-652e-408f-a73f-0a723c949b3c}, !- Handle
  {406c502c-4422-496d-9da5-ea27465d0ac8}, !- HVAC Component
  {8c6a06cc-ba2d-4226-9c34-ec4f96b0fa05}; !- Port 1

OS:PortList,
  {9a036842-c64e-4b5e-8457-aa12fc57c8cc}, !- Handle
  {406c502c-4422-496d-9da5-ea27465d0ac8}, !- HVAC Component
  {5c4ba69c-2d35-4ab5-9bd6-4807eb0435c2}; !- Port 1

OS:Sizing:Zone,
  {eb91e761-82bd-45e3-b787-c6c85dc46376}, !- Handle
  {406c502c-4422-496d-9da5-ea27465d0ac8}, !- Zone or ZoneList Name
  SupplyAirTemperature,                   !- Zone Cooling Design Supply Air Temperature Input Method
  12.7777777777778,                       !- Zone Cooling Design Supply Air Temperature {C}
  11.11,                                  !- Zone Cooling Design Supply Air Temperature Difference {deltaC}
  SupplyAirTemperature,                   !- Zone Heating Design Supply Air Temperature Input Method
  40.0000000000001,                       !- Zone Heating Design Supply Air Temperature {C}
  11.11,                                  !- Zone Heating Design Supply Air Temperature Difference {deltaC}
  0.0085,                                 !- Zone Cooling Design Supply Air Humidity Ratio {kg-H2O/kg-air}
  0.008,                                  !- Zone Heating Design Supply Air Humidity Ratio {kg-H2O/kg-air}
  ,                                       !- Zone Heating Sizing Factor
  ,                                       !- Zone Cooling Sizing Factor
  DesignDay,                              !- Cooling Design Air Flow Method
  ,                                       !- Cooling Design Air Flow Rate {m3/s}
  ,                                       !- Cooling Minimum Air Flow per Zone Floor Area {m3/s-m2}
  ,                                       !- Cooling Minimum Air Flow {m3/s}
  ,                                       !- Cooling Minimum Air Flow Fraction
  DesignDay,                              !- Heating Design Air Flow Method
  ,                                       !- Heating Design Air Flow Rate {m3/s}
  ,                                       !- Heating Maximum Air Flow per Zone Floor Area {m3/s-m2}
  ,                                       !- Heating Maximum Air Flow {m3/s}
  ,                                       !- Heating Maximum Air Flow Fraction
  No,                                     !- Account for Dedicated Outdoor Air System