
OS:Version,
  {50b202d5-9d2e-4eaf-8566-b04637468d37}, !- Handle
  3.0.1;                                  !- Version Identifier

OS:Schedule:Constant,
  {2130062c-6569-41bf-af5d-18def3bc785b}, !- Handle
  Always On Discrete,                     !- Name
  {30c235e9-212b-4022-a867-2a32bd31ffa0}, !- Schedule Type Limits Name
  1;                                      !- Value

OS:ScheduleTypeLimits,
  {30c235e9-212b-4022-a867-2a32bd31ffa0}, !- Handle
  Always On Discrete Limits,              !- Name
  0,                                      !- Lower Limit Value
  1,                                      !- Upper Limit Value
  Discrete,                               !- Numeric Type
  Availability;                           !- Unit Type

OS:Site,
  {f981f642-f645-4184-90ea-54ecb81181a3}, !- Handle
  Chicago Ohare Intl Ap_IL_USA,           !- Name
  41.98,                                  !- Latitude {deg}
  -87.92,                                 !- Longitude {deg}
  -6,                                     !- Time Zone {hr}
  201,                                    !- Elevation {m}
  City;                                   !- Terrain

OS:YearDescription,
  {286d52b4-ac67-4922-b45b-e99be1b2fa25}; !- Handle

OS:ClimateZones,
  {ed807fb1-d8cc-4fe4-81f9-ecc4a3e663b3}, !- Handle
  ASHRAE,                                 !- Climate Zone Institution Name 1
  ANSI/ASHRAE Standard 169,               !- Climate Zone Document Name 1
  2006,                                   !- Climate Zone Document Year 1
  5A;                                     !- Climate Zone Value 1

OS:Facility,
  {5874d766-9013-445a-b7ba-fbc18548d936}; !- Handle

OS:SimulationControl,
  {58c08c90-257a-4c48-bac8-bc48284aa3da}, !- Handle
  ,                                       !- Do Zone Sizing Calculation
  ,                                       !- Do System Sizing Calculation
  ,                                       !- Do Plant Sizing Calculation
  No,                                     !- Run Simulation for Sizing Periods
  Yes;                                    !- Run Simulation for Weather File Run Periods

OS:Sizing:Parameters,
  {b7f8e5e5-194f-46fb-b696-bf8dbd94d2a1}, !- Handle
  1.25,                                   !- Heating Sizing Factor
  1.15;                                   !- Cooling Sizing Factor

OS:Timestep,
  {7d9cdc89-f88b-48bc-a911-5c24839f5e0f}, !- Handle
  4;                                      !- Number of Timesteps per Hour

OS:ShadowCalculation,
  {4b4398c9-7698-4d5a-8651-280bd02def9b}, !- Handle
  PolygonClipping,                        !- Shading Calculation Method
  ,                                       !- Shading Calculation Update Frequency Method
  20,                                     !- Shading Calculation Update Frequency
  15000,                                  !- Maximum Figures in Shadow Overlap Calculations
  ,                                       !- Polygon Clipping Algorithm
  512,                                    !- Pixel Counting Resolution
  ,                                       !- Sky Diffuse Modeling Algorithm
  No,                                     !- Output External Shading Calculation Results
  No,                                     !- Disable Self-Shading Within Shading Zone Groups
  No;                                     !- Disable Self-Shading From Shading Zone Groups to Other Zones

OS:HeatBalanceAlgorithm,
  {f1ec6801-7d3f-453f-82f7-4587187226a7}, !- Handle
  ConductionTransferFunction,             !- Algorithm
  200;                                    !- Surface Temperature Upper Limit {C}

OS:RunPeriod,
  {61a69a03-a8f4-4d0f-85db-6c628a82e2d2}, !- Handle
  Run Period 1,                           !- Name
  1,                                      !- Begin Month
  1,                                      !- Begin Day of Month
  12,                                     !- End Month
  31,                                     !- End Day of Month
  ,                                       !- Use Weather File Holidays and Special Days
  ,                                       !- Use Weather File Daylight Saving Period
  ,                                       !- Apply Weekend Holiday Rule
  ,                                       !- Use Weather File Rain Indicators
  ,                                       !- Use Weather File Snow Indicators
  ;                                       !- Number of Times Runperiod to be Repeated

OS:LifeCycleCost:Parameters,
  {4156312f-45ac-41e1-8bda-ebb07868e9db}, !- Handle
  ,                                       !- Analysis Type
  ,                                       !- Discounting Convention
  ,                                       !- Inflation Approach
  ,                                       !- Real Discount Rate
  ,                                       !- Nominal Discount Rate
  ,                                       !- Inflation
  ,                                       !- Base Date Month
  ,                                       !- Base Date Year
  ,                                       !- Service Date Month
  ,                                       !- Service Date Year
  ;                                       !- Length of Study Period in Years

OS:RadianceParameters,
  {8262416c-3366-49be-b850-c8bf2a2e2f67}, !- Handle
  1,                                      !- Accumulated Rays per Record
  0,                                      !- Direct Threshold
  1,                                      !- Direct Certainty
  1,                                      !- Direct Jitter
  1,                                      !- Direct Pretest
  6,                                      !- Ambient Bounces VMX
  2,                                      !- Ambient Bounces DMX
  4050,                                   !- Ambient Divisions VMX
  512,                                    !- Ambient Divisions DMX
  256,                                    !- Ambient Supersamples
  0.001,                                  !- Limit Weight VMX
  0.001,                                  !- Limit Weight DMX
  500,                                    !- Klems Sampling Density
  146;                                    !- Sky Discretization Resolution

OS:ProgramControl,
  {6d15cd07-035c-45d0-a623-671450c718a3}; !- Handle

OS:OutputControl:ReportingTolerances,
  {91c73e89-784b-4867-bb28-b609a56b8e48}, !- Handle
  0.555555555555556,                      !- Tolerance for Time Heating Setpoint Not Met {deltaC}
  0.555555555555556;                      !- Tolerance for Time Cooling Setpoint Not Met {deltaC}

OS:ConvergenceLimits,
  {cb6bfab2-74c1-4485-b99c-995538d2528f}, !- Handle
  1;                                      !- Minimum System Timestep {minutes}

OS:SurfaceConvectionAlgorithm:Inside,
  {11ad18dd-d471-48ef-88d9-46efb5216de6}, !- Handle
  TARP;                                   !- Algorithm

OS:SurfaceConvectionAlgorithm:Outside,
  {0c1f02f4-28af-46a7-ac53-41fe3fc66141}, !- Handle
  DOE-2;                                  !- Algorithm

OS:ZoneAirHeatBalanceAlgorithm,
  {fa5733e2-b532-4919-a72b-426a91d73b12}, !- Handle
  ThirdOrderBackwardDifference;           !- Algorithm

OS:ZoneAirContaminantBalance,
  {51670a9b-9ae9-42fe-8f9f-02eb7c714cb1}; !- Handle

OS:ZoneCapacitanceMultiplier:ResearchSpecial,
  {c4dc60a1-e8fc-4026-b715-51487c3784e6}, !- Handle
  ,                                       !- Temperature Capacity Multiplier
  ,                                       !- Humidity Capacity Multiplier
  ;                                       !- Carbon Dioxide Capacity Multiplier

OS:WeatherFile,
  {e369eb55-f763-4835-8a5f-a9d92bf96c07}, !- Handle
  Chicago Ohare Intl Ap,                  !- City
  IL,                                     !- State Province Region
  USA,                                    !- Country
  TMY3,                                   !- Data Source
  725300,                                 !- WMO Number
  41.98,                                  !- Latitude {deg}
  -87.92,                                 !- Longitude {deg}
  -6,                                     !- Time Zone {hr}
  201,                                    !- Elevation {m}
  /Users/dgoldwas/Documents/GitHub/Personal/osw2osa/weather/USA_IL_Chicago-OHare.Intl.AP.725300_TMY3.epw, !- Url
  ;                                       !- Checksum

OS:Site:WaterMainsTemperature,
  {43656fee-bd38-4b9c-826a-c24e3f38244f}, !- Handle
  Correlation,                            !- Calculation Method
  ,                                       !- Temperature Schedule Name
  9.925,                                  !- Annual Average Outdoor Air Temperature {C}
  28.7;                                   !- Maximum Difference In Monthly Average Outdoor Air Temperatures {deltaC}

OS:SizingPeriod:DesignDay,
  {422b38cc-e2c1-49c6-abe8-ac03253eb791}, !- Handle
  Chicago Ohare Intl Ap Ann Clg .4% Condns DB=>MWB 1, !- Name
  33.3,                                   !- Maximum Dry-Bulb Temperature {C}
  10.5,                                   !- Daily Dry-Bulb Temperature Range {deltaC}
  23.7,                                   !- Humidity Indicating Conditions at Maximum Dry-Bulb
  98934,                                  !- Barometric Pressure {Pa}
  5.2,                                    !- Wind Speed {m/s}
  230,                                    !- Wind Direction {deg}
  0,                                      !- Sky Clearness
  0,                                      !- Rain Indicator
  0,                                      !- Snow Indicator
  21,                                     !- Day of Month
  7,                                      !- Month
  SummerDesignDay,                        !- Day Type
  0,                                      !- Daylight Saving Time Indicator
  Wetbulb,                                !- Humidity Indicating Type
  ,                                       !- Humidity Indicating Day Schedule Name
  DefaultMultipliers,                     !- Dry-Bulb Temperature Range Modifier Type
  ,                                       !- Dry-Bulb Temperature Range Modifier Schedule Name
  ASHRAETau,                              !- Solar Model Indicator
  ,                                       !- Beam Solar Day Schedule Name
  ,                                       !- Diffuse Solar Day Schedule Name
  0.455,                                  !- ASHRAE Taub {dimensionless}
  2.05;                                   !- ASHRAE Taud {dimensionless}

OS:SizingPeriod:DesignDay,
  {ca16302c-75dc-431e-8670-6f6f20cbc8fb}, !- Handle
  Chicago Ohare Intl Ap Ann Clg .4% Condns WB=>MDB 1, !- Name
  31.2,                                   !- Maximum Dry-Bulb Temperature {C}
  10.5,                                   !- Daily Dry-Bulb Temperature Range {deltaC}
  25.5,                                   !- Humidity Indicating Conditions at Maximum Dry-Bulb
  98934,                                  !- Barometric Pressure {Pa}
  5.2,                                    !- Wind Speed {m/s}
  230,                                    !- Wind Direction {deg}
  0,                                      !- Sky Clearness
  0,                                      !- Rain Indicator
  0,                                      !- Snow Indicator
  21,                                     !- Day of Month
  7,                                      !- Month
  SummerDesignDay,                        !- Day Type
  0,                                      !- Daylight Saving Time Indicator
  Wetbulb,                                !- Humidity Indicating Type
  ,                                       !- Humidity Indicating Day Schedule Name
  DefaultMultipliers,                     !- Dry-Bulb Temperature Range Modifier Type
  ,                                       !- Dry-Bulb Temperature Range Modifier Schedule Name
  ASHRAETau,                              !- Solar Model Indicator
  ,                                       !- Beam Solar Day Schedule Name
  ,                                       !- Diffuse Solar Day Schedule Name
  0.455,                                  !- ASHRAE Taub {dimensionless}
  2.05;                                   !- ASHRAE Taud {dimensionless}

OS:SizingPeriod:DesignDay,
  {1f4d5a1c-2e78-46d2-8eec-a4bf34bded4d}, !- Handle
  Chicago Ohare Intl Ap Ann Htg 99.6% Condns DB 1, !- Name
  -20,                                    !- Maximum Dry-Bulb Temperature {C}
  0,                                      !- Daily Dry-Bulb Temperature Range {deltaC}
  -20,                                    !- Humidity Indicating Conditions at Maximum Dry-Bulb
  98934,                                  !- Barometric Pressure {Pa}
  4.9,                                    !- Wind Speed {m/s}
  270,                                    !- Wind Direction {deg}
  0,                                      !- Sky Clearness
  0,                                      !- Rain Indicator
  0,                                      !- Snow Indicator
  21,                                     !- Day of Month
  1,                                      !- Month
  WinterDesignDay,                        !- Day Type
  0,                                      !- Daylight Saving Time Indicator
  Wetbulb,                                !- Humidity Indicating Type
  ,                                       !- Humidity Indicating Day Schedule Name
  DefaultMultipliers,                     !- Dry-Bulb Temperature Range Modifier Type
  ,                                       !- Dry-Bulb Temperature Range Modifier Schedule Name
  ASHRAEClearSky;                         !- Solar Model Indicator

OS:Building,
  {09910ca3-98c4-4323-b776-49eef536a1db}, !- Handle
  90.1-2013|SecondarySchool,              !- Name
  ,                                       !- Building Sector Type
  ,                                       !- North Axis {deg}
  ,                                       !- Nominal Floor to Floor Height {m}
  ,                                       !- Space Type Name
  {b0f5e19d-6084-4ae3-b353-d54e74411339}, !- Default Construction Set Name
  ,                                       !- Default Schedule Set Name
  ,                                       !- Standards Number of Stories
  ,                                       !- Standards Number of Above Ground Stories
  ,                                       !- Standards Template
  SecondarySchool;                        !- Standards Building Type

OS:SpaceType,
  {f944b906-14b7-4f7e-884e-279e55b6bd51}, !- Handle
  SecondarySchool Kitchen - 90.1-2013,    !- Name
  ,                                       !- Default Construction Set Name
  {7f9c9c6e-4ecf-4c4f-9865-1825b5cd269a}, !- Default Schedule Set Name
  {7e7c9785-cc95-4cd9-9465-35ccbdd9dbcd}, !- Group Rendering Name
  {f484577f-e74c-49d8-9c08-a692ecbbe7f6}, !- Design Specification Outdoor Air Object Name
  ,                                       !- Standards Template
  SecondarySchool,                        !- Standards Building Type
  Kitchen;                                !- Standards Space Type

OS:Rendering:Color,
  {7e7c9785-cc95-4cd9-9465-35ccbdd9dbcd}, !- Handle
  SecondarySchool Kitchen,                !- Name
  78,                                     !- Rendering Red Value
  222,                                    !- Rendering Green Value
  133;                                    !- Rendering Blue Value

OS:SpaceType,
  {46c79ac2-4f54-48ad-8e3b-c0ceaca0da0c}, !- Handle
  SecondarySchool Restroom - 90.1-2013,   !- Name
  ,                                       !- Default Construction Set Name
  {a47ceb37-adc3-4d0a-90c8-e5808d60a548}, !- Default Schedule Set Name
  {04831f74-312c-421b-87c9-d3a3a781c3f3}, !- Group Rendering Name
  {69a8158a-a731-4f87-a6fb-524488179d7f}, !- Design Specification Outdoor Air Object Name
  ,                                       !- Standards Template
  SecondarySchool,                        !- Standards Building Type
  Restroom;                               !- Standards Space Type

OS:Rendering:Color,
  {04831f74-312c-421b-87c9-d3a3a781c3f3}, !- Handle
  SecondarySchool Restroom,               !- Name
  169,                                    !- Rendering Red Value
  169,                                    !- Rendering Green Value
  31;                                     !- Rendering Blue Value

OS:SpaceType,
  {0c4a32e6-7604-4d6b-bf66-949651f2b837}, !- Handle
  SecondarySchool Lobby - 90.1-2013,      !- Name
  ,                                       !- Default Construction Set Name
  {ff51cd92-0c90-4d7a-ab1e-d55ed4f9f0a5}, !- Default Schedule Set Name
  {18d26302-a204-44ea-9a6a-851ae4f6610d}, !- Group Rendering Name
  {1a656b0a-b182-473d-bff7-77355c11d4ad}, !- Design Specification Outdoor Air Object Name
  ,                                       !- Standards Template
  SecondarySchool,                        !- Standards Building Type
  Lobby;                                  !- Standards Space Type

OS:Rendering:Color,
  {18d26302-a204-44ea-9a6a-851ae4f6610d}, !- Handle
  SecondarySchool Lobby,                  !- Name
  230,                                    !- Rendering Red Value
  157,                                    !- Rendering Green Value
  120;                                    !- Rendering Blue Value

OS:SpaceType,
  {b8050f52-c671-42e0-855e-3f3a854998a1}, !- Handle
  SecondarySchool Cafeteria - 90.1-2013,  !- Name
  ,                                       !- Default Construction Set Name
  {28136f05-70f2-4efd-bb2b-2697f70a32c3}, !- Default Schedule Set Name
  {747c25d7-c176-4a87-8a06-349899b42e7a}, !- Group Rendering Name
  {d7b21b83-9585-49bd-b653-f3db9815aa4d}, !- Design Specification Outdoor Air Object Name
  ,                                       !- Standards Template
  SecondarySchool,                        !- Standards Building Type
  Cafeteria;                              !- Standards Space Type

OS:Rendering:Color,
  {747c25d7-c176-4a87-8a06-349899b42e7a}, !- Handle
  SecondarySchool Cafeteria,              !- Name
  31,                                     !- Rendering Red Value
  169,                                    !- Rendering Green Value
  34;                                     !- Rendering Blue Value

OS:SpaceType,
  {e7ba05a4-a2da-417d-8041-88a08a1b6162}, !- Handle
  SecondarySchool Mechanical - 90.1-2013, !- Name
  ,                                       !- Default Construction Set Name
  {69a764f3-64db-4f5b-9da8-8c5119efe9c6}, !- Default Schedule Set Name
  {409ec3ad-fa8b-44eb-9bbb-e2095b24bb04}, !- Group Rendering Name
  {9c1d7033-4f46-4766-ac41-8250b4fb6a56}, !- Design Specification Outdoor Air Object Name
  ,                                       !- Standards Template
  SecondarySchool,                        !- Standards Building Type
  Mechanical;                             !- Standards Space Type

OS:Rendering:Color,
  {409ec3ad-fa8b-44eb-9bbb-e2095b24bb04}, !- Handle
  SecondarySchool Mechanical,             !- Name
  41,                                     !- Rendering Red Value
  31,                                     !- Rendering Green Value
  169;                                    !- Rendering Blue Value

OS:SpaceType,
  {e447ba4e-6b23-4041-9c71-6a84c8ab02f1}, !- Handle
  SecondarySchool Library - 90.1-2013,    !- Name
  ,                                       !- Default Construction Set Name
  {a83ea53f-0f9b-4378-8d71-2fddd863b5a0}, !- Default Schedule Set Name
  {98d34850-c1f3-47eb-af73-ff0e5ff5e9e3}, !- Group Rendering Name
  {3f978e12-7f1b-4fdf-9ca1-e3e700d345ca}, !- Design Specification Outdoor Air Object Name
  ,                                       !- Standards Template
  SecondarySchool,                        !- Standards Building Type
  Library;                                !- Standards Space Type

OS:Rendering:Color,
  {98d34850-c1f3-47eb-af73-ff0e5ff5e9e3}, !- Handle
  SecondarySchool Library,                !- Name
  230,                                    !- Rendering Red Value
  196,                                    !- Rendering Green Value
  120;                                    !- Rendering Blue Value

OS:SpaceType,
  {e06a8f05-e408-45d1-9355-5c0d42acfce7}, !- Handle
  SecondarySchool ComputerRoom - 90.1-2013, !- Name
  ,                                       !- Default Construction Set Name
  {28127624-2dc4-4479-82e4-ed8e1413980b}, !- Default Schedule Set Name
  {ad635a19-72d4-47df-bb58-af71ea9fe187}, !- Group Rendering Name
  {65b215cf-856e-451e-b365-f690942aff36}, !- Design Specification Outdoor Air Object Name
  ,                                       !- Standards Template
  SecondarySchool,                        !- Standards Building Type
  ComputerRoom;                           !- Standards Space Type

OS:Rendering:Color,
  {ad635a19-72d4-47df-bb58-af71ea9fe187}, !- Handle
  SecondarySchool ComputerRoom,           !- Name
  120,                                    !- Rendering Red Value
  230,                                    !- Rendering Green Value
  199;                                    !- Rendering Blue Value

OS:SpaceType,
  {b7085e0c-5ec7-4af9-ae6e-6da9329cf929}, !- Handle
  SecondarySchool Auditorium - 90.1-2013, !- Name
  ,                                       !- Default Construction Set Name
  {6033457f-1e15-4904-9b3e-d261d15db2cd}, !- Default Schedule Set Name
  {c476fbce-3e45-4eab-b7dc-4e7087b89827}, !- Group Rendering Name
  {9aaff7dd-449a-4ac2-851c-4ac88f77ebf2}, !- Design Specification Outdoor Air Object Name
  ,                                       !- Standards Template
  SecondarySchool,                        !- Standards Building Type
  Auditorium;                             !- Standards Space Type

OS:Rendering:Color,
  {c476fbce-3e45-4eab-b7dc-4e7087b89827}, !- Handle
  SecondarySchool Auditorium,             !- Name
  230,                                    !- Rendering Red Value
  196,                                    !- Rendering Green Value
  120;                                    !- Rendering Blue Value

OS:SpaceType,
  {5c8f406d-e383-4fd9-aa08-c50a98550586}, !- Handle
  SecondarySchool Office - 90.1-2013,     !- Name
  ,                                       !- Default Construction Set Name
  {544ddd87-bd70-43a8-b9dd-a7d81af67777}, !- Default Schedule Set Name
  {9dd19896-1b3e-473a-a266-076c151f5914}, !- Group Rendering Name
  {35db8b0e-2682-4631-b4f9-d6cccf009e36}, !- Design Specification Outdoor Air Object Name
  ,                                       !- Standards Template
  SecondarySchool,                        !- Standards Building Type
  Office;                                 !- Standards Space Type

OS:Rendering:Color,
  {9dd19896-1b3e-473a-a266-076c151f5914}, !- Handle
  SecondarySchool Office,                 !- Name
  120,                                    !- Rendering Red Value
  230,                                    !- Rendering Green Value
  199;                                    !- Rendering Blue Value

OS:SpaceType,
  {888647e9-d8e6-44cb-b156-42719478fce5}, !- Handle
  SecondarySchool Gym - 90.1-2013,        !- Name
  ,                                       !- Default Construction Set Name
  {adb1c7ce-40c9-4f24-8923-995cea08c9c2}, !- Default Schedule Set Name
  {193e4bf4-c428-4556-8da3-f41a022240c8}, !- Group Rendering Name
  {d606ae02-5334-4d27-894d-2875bc8b978e}, !- Design Specification Outdoor Air Object Name
  ,                                       !- Standards Template
  SecondarySchool,                        !- Standards Building Type
  Gym;                                    !- Standards Space Type

OS:Rendering:Color,
  {193e4bf4-c428-4556-8da3-f41a022240c8}, !- Handle
  SecondarySchool Gym,                    !- Name
  154,                                    !- Rendering Red Value
  230,                                    !- Rendering Green Value
  120;                                    !- Rendering Blue Value

OS:SpaceType,
  {55936da5-d5c1-4899-92be-e8864ce64187}, !- Handle
  SecondarySchool Corridor - 90.1-2013,   !- Name
  ,                                       !- Default Construction Set Name
  {97e7242a-2c90-44e3-9467-e148e11d36c7}, !- Default Schedule Set Name
  {285be831-9f1b-455d-966e-ea0cd6d07e5e}, !- Group Rendering Name
  {0b217722-3455-4dea-a547-a6c895b48101}, !- Design Specification Outdoor Air Object Name
  ,                                       !- Standards Template
  SecondarySchool,                        !- Standards Building Type
  Corridor;                               !- Standards Space Type

OS:Rendering:Color,
  {285be831-9f1b-455d-966e-ea0cd6d07e5e}, !- Handle
  SecondarySchool Corridor,               !- Name
  169,                                    !- Rendering Red Value
  31,                                     !- Rendering Green Value
  31;                                     !- Rendering Blue Value

OS:SpaceType,
  {237b3bf3-6a1f-408c-8b17-ea73720dd176}, !- Handle
  SecondarySchool Classroom - 90.1-2013,  !- Name
  ,                                       !- Default Construction Set Name
  {9bb1aef6-f4ec-4bcb-91d5-8dce9115df43}, !- Default Schedule Set Name
  {4ede13a1-bccb-4518-b89b-759e7b8839b8}, !- Group Rendering Name
  {c422ddf4-3d3a-4c0b-a8bc-50f4bb1e172b}, !- Design Specification Outdoor Air Object Name
  ,                                       !- Standards Template
  SecondarySchool,                        !- Standards Building Type
  Classroom;                              !- Standards Space Type

OS:Rendering:Color,
  {4ede13a1-bccb-4518-b89b-759e7b8839b8}, !- Handle
  SecondarySchool Classroom,              !- Name
  120,                                    !- Rendering Red Value
  230,                                    !- Rendering Green Value
  199;                                    !- Rendering Blue Value

OS:BuildingStory,
  {ed6eb781-4359-46bb-8f40-0793c41c1aa0}, !- Handle
  Story B1,                               !- Name
  -3.9624,                                !- Nominal Z Coordinate {m}
  3.9624,                                 !- Nominal Floor to Floor Height {m}
  ,                                       !- Default Construction Set Name
  ,                                       !- Default Schedule Set Name
  ;                                       !- Group Rendering Name

OS:Space,
  {e3bd1dde-91e5-425e-941e-942dc884bc4a}, !- Handle
  SecondarySchool Office A end_a - Story B1, !- Name
  {5c8f406d-e383-4fd9-aa08-c50a98550586}, !- Space Type Name
  ,                                       !- Default Construction Set Name
  ,                                       !- Default Schedule Set Name
  -0,                                     !- Direction of Relative North {deg}
  -67.4635648206583,                      !- X Origin {m}
  -13.8831049374566,                      !- Y Origin {m}
  -3.9624,                                !- Z Origin {m}
  {ed6eb781-4359-46bb-8f40-0793c41c1aa0}, !- Building Story Name
  {f8e16b7b-7348-48dc-8ea6-234da05ca8b1}; !- Thermal Zone Name

OS:Surface,
  {a0a4121d-1681-448b-8537-c08dc7e0cc0e}, !- Handle
  Surface 1,                              !- Name
  Floor,                                  !- Surface Type
  ,                                       !- Construction Name
  {e3bd1dde-91e5-425e-941e-942dc884bc4a}, !- Space Name
  Ground,                                 !- Outside Boundary Condition
  ,                                       !- Outside Boundary Condition Object
  NoSun,                                  !- Sun Exposure
  NoWind,                                 !- Wind Exposure
  ,                                       !- View Factor to Ground
  ,                                       !- Number of Vertices
  -2.8421709430404e-14, -4.61852778244065e-14, 0, !- X,Y,Z Vertex 1 {m}
  -2.8421709430404e-14, 4.57199999999999, 0, !- X,Y,Z Vertex 2 {m}
  4.57199999999997, 4.57199999999999, 0,  !- X,Y,Z Vertex 3 {m}
  4.57199999999997, -4.61852778244065e-14, 0; !- X,Y,Z Vertex 4 {m}

OS:Surface,
  {f3ebdb29-8b47-43ba-8ec1-d05123d26b92}, !- Handle
  Surface 2,                              !- Name
  Wall,                                   !- Surface Type
  ,                                       !- Construction Name
  {e3bd1dde-91e5-425e-941e-942dc884bc4a}, !- Space Name
  Ground,                                 !- Outside Boundary Condition
  ,                                       !- Outside Boundary Condition Object
  NoSun,                                  !- Sun Exposure
  NoWind,                                 !- Wind Exposure
  ,                                       !- View Factor to Ground
  ,                                       !- Number of Vertices
  -2.8421709430404e-14, 4.57199999999999, 3.9624, !- X,Y,Z Vertex 1 {m}
  -2.8421709430404e-14, 4.57199999999999, 0, !- X,Y,Z Vertex 2 {m}
  -2.8421709430404e-14, -4.61852778244065e-14, 0, !- X,Y,Z Vertex 3 {m}
  -2.8421709430404e-14, -4.61852778244065e-14, 3.9624; !- X,Y,Z Vertex 4 {m}

OS:Surface,
  {0d54e671-f2c0-4e9c-ae9e-0a932a93beab}, !- Handle
  Surface 3,                              !- Name
  Wall,                                   !- Surface Type
  ,                                       !- Construction Name
  {e3bd1dde-91e5-425e-941e-942dc884bc4a}, !- Space Name
  Surface,                                !- Outside Boundary Condition
  {9a79af1e-767e-41b4-8ca8-d55b9e7aad1c}, !- Outside Boundary Condition Object
  NoSun,                                  !- Sun Exposure
  NoWind,                                 !- Wind Exposure
  ,                                       !- View Factor to Ground
  ,                                       !- Number of Vertices
  4.57199999999997, 4.57199999999999, 3.9624, !- X,Y,Z Vertex 1 {m}
  4.57199999999997, 4.57199999999999, 0,  !- X,Y,Z Vertex 2 {m}
  -2.8421709430404e-14, 4.57199999999999, 0, !- X,Y,Z Vertex 3 {m}
  -2.8421709430404e-14, 4.57199999999999, 3.9624; !- X,Y,Z Vertex 4 {m}

OS:Surface,
  {d76f732f-2843-45f7-931e-e58c664f46f7}, !- Handle
  Surface 4,                              !- Name
  Wall,                                   !- Surface Type