
OS:Version,
  {9c9ac75d-3bd0-4693-8ff7-930fa318ebb0}, !- Handle
  3.0.1;                                  !- Version Identifier

OS:Schedule:Constant,
  {55fedaae-d10e-4283-8489-8b6237ed81d8}, !- Handle
  Always On Discrete,                     !- Name
  {693b2109-fbe9-4984-bc19-41062ab09214}, !- Schedule Type Limits Name
  1;                                      !- Value

OS:ScheduleTypeLimits,
  {693b2109-fbe9-4984-bc19-41062ab09214}, !- Handle
  Always On Discrete Limits,              !- Name
  0,                                      !- Lower Limit Value
  1,                                      !- Upper Limit Value
  Discrete,                               !- Numeric Type
  Availability;                           !- Unit Type

OS:Site,
  {bc874655-a927-4872-a278-1347186bb1d9}, !- Handle
  Denver Intl Ap,                         !- Name
  39.83,                                  !- Latitude {deg}
  -104.65,                                !- Longitude {deg}
  -7,                                     !- Time Zone {hr}
  1650,                                   !- Elevation {m}
  ;                                       !- Terrain

OS:YearDescription,
  {9116ce1c-534f-4b3a-9d15-2bb1a805c7e1}, !- Handle
  ,                                       !- Calendar Year
  Sunday,                                 !- Day of Week for Start Day
  ;                                       !- Is Leap Year

OS:ClimateZones,
  {dd268d6b-2da7-4abc-b8ad-35d0988c56cd}, !- Handle
  ASHRAE,                                 !- Climate Zone Institution Name 1
  ANSI/ASHRAE Standard 169,               !- Climate Zone Document Name 1
  2006,                                   !- Climate Zone Document Year 1
  ,                                       !- Climate Zone Value 1
  CEC,                                    !- Climate Zone Institution Name 2
  California Climate Zone Descriptions,   !- Climate Zone Document Name 2
  1995,                                   !- Climate Zone Document Year 2
  ;                                       !- Climate Zone Value 2

OS:Building,
  {4434130b-100b-4e19-b646-32bcd4b44eba}, !- Handle
  Building 1,                             !- Name
  ,                                       !- Building Sector Type
  ,                                       !- North Axis {deg}
  ,                                       !- Nominal Floor to Floor Height {m}
  ,                                       !- Space Type Name
  ,                                       !- Default Construction Set Name
  ;                                       !- Default Schedule Set Name

OS:Facility,
  {01cd2b0a-8ee0-4ab6-a2fb-9f6c7d21094d}; !- Handle

OS:SimulationControl,
  {30e9303f-ed23-491c-b310-8ef7274e967f}; !- Handle

OS:Sizing:Parameters,
  {c983733e-8a2d-428d-8380-a9c380f3d01c}, !- Handle
  1.25,                                   !- Heating Sizing Factor
  1.15;                                   !- Cooling Sizing Factor

OS:Timestep,
  {7a470c9d-4813-47b4-b276-325100b7b62f}, !- Handle
  6;                                      !- Number of Timesteps per Hour

OS:ShadowCalculation,
  {21696cf9-7a12-43bf-ac4c-50d1be8bf2fd}, !- Handle
  PolygonClipping,                        !- Shading Calculation Method
  ,                                       !- Shading Calculation Update Frequency Method
  20,                                     !- Shading Calculation Update Frequency
  15000,                                  !- Maximum Figures in Shadow Overlap Calculations
  ,                                       !- Polygon Clipping Algorithm
  512,                                    !- Pixel Counting Resolution
  ,                                       !- Sky Diffuse Modeling Algorithm
  No,                                     !- Output External Shading Calculation Results
  No,                                     !- Disable Self-Shading Within Shading Zone Groups
  No;                                     !- Disable Self-Shading From Shading Zone Groups to Other Zones

OS:HeatBalanceAlgorithm,
  {09f4a614-27ba-43a9-a0ac-4379e03c44e8}, !- Handle
  ConductionTransferFunction,             !- Algorithm
  200;                                    !- Surface Temperature Upper Limit {C}

OS:RunPeriod,
  {322b0b21-e55e-459f-b4f2-853d2d37fd9a}, !- Handle
  Run Period 1,                           !- Name
  1,                                      !- Begin Month
  1,                                      !- Begin Day of Month
  12,                                     !- End Month
  31,                                     !- End Day of Month
  ,                                       !- Use Weather File Holidays and Special Days
  ,                                       !- Use Weather File Daylight Saving Period
  ,                                       !- Apply Weekend Holiday Rule
  ,                                       !- Use Weather File Rain Indicators
  ,                                       !- Use Weather File Snow Indicators
  ;                                       !- Number of Times Runperiod to be Repeated

OS:LifeCycleCost:Parameters,
  {a8ce31c8-7533-4ad7-aa7a-5380b4197455}, !- Handle
  ,                                       !- Analysis Type
  ,                                       !- Discounting Convention
  ,                                       !- Inflation Approach
  ,                                       !- Real Discount Rate
  ,                                       !- Nominal Discount Rate
  ,                                       !- Inflation
  ,                                       !- Base Date Month
  ,                                       !- Base Date Year
  ,                                       !- Service Date Month
  ,                                       !- Service Date Year
  ;                                       !- Length of Study Period in Years

OS:SpaceType,
  {b70cb103-9ae3-4907-91d0-98b7c059e019}, !- Handle
  commercial,                             !- Name
  ,                                       !- Default Construction Set Name
  ,                                       !- Default Schedule Set Name
  {35172f61-56c3-4d80-ae0b-4d63360afdad}, !- Group Rendering Name
  ,                                       !- Design Specification Outdoor Air Object Name
  90.1-2013,                              !- Standards Template
  Retail,                                 !- Standards Building Type
  Retail;                                 !- Standards Space Type

OS:Rendering:Color,
  {35172f61-56c3-4d80-ae0b-4d63360afdad}, !- Handle
  Rendering Color 1,                      !- Name
  139,                                    !- Rendering Red Value
  0,                                      !- Rendering Green Value
  0;                                      !- Rendering Blue Value

OS:SpaceType,
  {714f3598-ca42-4592-a196-6199d07d9ad1}, !- Handle
  elevator,                               !- Name
  ,                                       !- Default Construction Set Name
  ,                                       !- Default Schedule Set Name
  {634f62d9-d69e-4f12-a62f-d9cbae01af5e}, !- Group Rendering Name
  ,                                       !- Design Specification Outdoor Air Object Name
  90.1-2013,                              !- Standards Template
  SmallHotel,                             !- Standards Building Type
  ElevatorCore;                           !- Standards Space Type

OS:Rendering:Color,
  {634f62d9-d69e-4f12-a62f-d9cbae01af5e}, !- Handle
  Rendering Color 2,                      !- Name
  222,                                    !- Rendering Red Value
  184,                                    !- Rendering Green Value
  135;                                    !- Rendering Blue Value

OS:SpaceType,
  {58851430-e41d-48e3-9204-1d1b564a9735}, !- Handle
  stair,                                  !- Name
  ,                                       !- Default Construction Set Name
  ,                                       !- Default Schedule Set Name
  {dd7adba3-1e0e-4ad9-9912-4ca73c00db5c}, !- Group Rendering Name
  ,                                       !- Design Specification Outdoor Air Object Name
  90.1-2013,                              !- Standards Template
  SmallHotel,                             !- Standards Building Type
  Stair;                                  !- Standards Space Type

OS:Rendering:Color,
  {dd7adba3-1e0e-4ad9-9912-4ca73c00db5c}, !- Handle
  Rendering Color 3,                      !- Name
  184,                                    !- Rendering Red Value
  134,                                    !- Rendering Green Value
  11;                                     !- Rendering Blue Value

OS:SpaceType,
  {83622af1-b14e-48d1-b091-d0d9681a5de2}, !- Handle
  coffee,                                 !- Name
  ,                                       !- Default Construction Set Name
  ,                                       !- Default Schedule Set Name
  {ce768d3c-e52e-4afa-b071-5d9c0fce73e1}, !- Group Rendering Name
  ,                                       !- Design Specification Outdoor Air Object Name
  90.1-2013,                              !- Standards Template
  QuickServiceRestaurant,                 !- Standards Building Type
  Dining;                                 !- Standards Space Type

OS:Rendering:Color,
  {ce768d3c-e52e-4afa-b071-5d9c0fce73e1}, !- Handle
  Rendering Color 4,                      !- Name
  255,                                    !- Rendering Red Value
  255,                                    !- Rendering Green Value
  240;                                    !- Rendering Blue Value

OS:SpaceType,
  {bc8a913a-5210-49b0-87bf-18f7c00f646c}, !- Handle
  mail,                                   !- Name
  ,                                       !- Default Construction Set Name
  ,                                       !- Default Schedule Set Name
  {2f88e1b2-d365-4973-9c90-f7de82d21f15}, !- Group Rendering Name
  ,                                       !- Design Specification Outdoor Air Object Name
  90.1-2013,                              !- Standards Template
  SmallHotel,                             !- Standards Building Type
  Storage;                                !- Standards Space Type

OS:Rendering:Color,
  {2f88e1b2-d365-4973-9c90-f7de82d21f15}, !- Handle
  Rendering Color 5,                      !- Name
  173,                                    !- Rendering Red Value
  216,                                    !- Rendering Green Value
  230;                                    !- Rendering Blue Value

OS:SpaceType,
  {bad4439e-3588-4950-a30c-7bfd7333af17}, !- Handle
  community,                              !- Name
  ,                                       !- Default Construction Set Name
  ,                                       !- Default Schedule Set Name
  {420057d7-59c8-45a0-9e25-073d4ef81c6a}, !- Group Rendering Name
  ,                                       !- Design Specification Outdoor Air Object Name
  90.1-2013,                              !- Standards Template
  SmallHotel,                             !- Standards Building Type
  Meeting;                                !- Standards Space Type

OS:Rendering:Color,
  {420057d7-59c8-45a0-9e25-073d4ef81c6a}, !- Handle
  Rendering Color 6,                      !- Name
  218,                                    !- Rendering Red Value
  165,                                    !- Rendering Green Value
  32;                                     !- Rendering Blue Value

OS:SpaceType,
  {34b49fae-674b-4892-be15-605c05eee15b}, !- Handle
  retail,                                 !- Name
  ,                                       !- Default Construction Set Name
  ,                                       !- Default Schedule Set Name
  {39d88523-3a28-431b-9b64-c173d59f6c45}, !- Group Rendering Name
  ,                                       !- Design Specification Outdoor Air Object Name
  90.1-2013,                              !- Standards Template
  Retail,                                 !- Standards Building Type
  Core_Retail;                            !- Standards Space Type

OS:Rendering:Color,
  {39d88523-3a28-431b-9b64-c173d59f6c45}, !- Handle
  Rendering Color 7,                      !- Name
  205,                                    !- Rendering Red Value
  133,                                    !- Rendering Green Value
  63;                                     !- Rendering Blue Value

OS:SpaceType,
  {13356299-baf8-484c-9eaa-1d333a316c81}, !- Handle
  garbage,                                !- Name
  ,                                       !- Default Construction Set Name
  ,                                       !- Default Schedule Set Name
  {e22b0848-191e-46ea-9644-28f2dd472017}, !- Group Rendering Name
  ,                                       !- Design Specification Outdoor Air Object Name
  90.1-2013,                              !- Standards Template
  SmallHotel,                             !- Standards Building Type
  Storage;                                !- Standards Space Type

OS:Rendering:Color,
  {e22b0848-191e-46ea-9644-28f2dd472017}, !- Handle
  Rendering Color 8,                      !- Name
  240,                                    !- Rendering Red Value
  255,                                    !- Rendering Green Value
  240;                                    !- Rendering Blue Value

OS:SpaceType,
  {e856b28a-e298-4640-8c8a-ee19a8560d15}, !- Handle
  gym,                                    !- Name
  ,                                       !- Default Construction Set Name
  ,                                       !- Default Schedule Set Name
  {934bd42a-0ab0-4390-b15a-b6c4d1e3dc04}, !- Group Rendering Name
  ,                                       !- Design Specification Outdoor Air Object Name
  90.1-2013,                              !- Standards Template
  SmallHotel,                             !- Standards Building Type
  Exercise;                               !- Standards Space Type

OS:Rendering:Color,
  {934bd42a-0ab0-4390-b15a-b6c4d1e3dc04}, !- Handle
  Rendering Color 9,                      !- Name
  72,                                     !- Rendering Red Value
  61,                                     !- Rendering Green Value
  139;                                    !- Rendering Blue Value

OS:SpaceType,
  {fa66fd74-150a-4990-a8b1-10998fa556ca}, !- Handle
  office,                                 !- Name
  ,                                       !- Default Construction Set Name
  ,                                       !- Default Schedule Set Name
  {803273d2-7003-4f62-b9c6-15f26c401b2e}, !- Group Rendering Name
  ,                                       !- Design Specification Outdoor Air Object Name
  90.1-2013,                              !- Standards Template
  MidriseApartment,                       !- Standards Building Type
  Office;                                 !- Standards Space Type

OS:Rendering:Color,
  {803273d2-7003-4f62-b9c6-15f26c401b2e}, !- Handle
  Rendering Color 10,                     !- Name
  255,                                    !- Rendering Red Value
  0,                                      !- Rendering Green Value
  255;                                    !- Rendering Blue Value

OS:SpaceType,
  {8d6f7c1e-5f11-45f9-9317-3078eee6e583}, !- Handle
  lobby,                                  !- Name
  ,                                       !- Default Construction Set Name
  ,                                       !- Default Schedule Set Name
  {e515507c-9889-442e-8361-cb7b23b23193}, !- Group Rendering Name
  ,                                       !- Design Specification Outdoor Air Object Name
  90.1-2013,                              !- Standards Template
  Retail,                                 !- Standards Building Type
  Entry;                                  !- Standards Space Type

OS:Rendering:Color,
  {e515507c-9889-442e-8361-cb7b23b23193}, !- Handle
  Rendering Color 11,                     !- Name
  119,                                    !- Rendering Red Value
  136,                                    !- Rendering Green Value
  153;                                    !- Rendering Blue Value

OS:SpaceType,
  {a8f5b834-9f40-45ee-8569-cd47b984091f}, !- Handle
  bathroom,                               !- Name
  ,                                       !- Default Construction Set Name
  ,                                       !- Default Schedule Set Name
  {cf5c76ef-e511-4f24-9936-38e4ee127d4b}, !- Group Rendering Name
  ,                                       !- Design Specification Outdoor Air Object Name
  90.1-2013,                              !- Standards Template
  SmallHotel,                             !- Standards Building Type
  PublicRestroom;                         !- Standards Space Type

OS:Rendering:Color,
  {cf5c76ef-e511-4f24-9936-38e4ee127d4b}, !- Handle
  Rendering Color 12,                     !- Name
  105,                                    !- Rendering Red Value
  105,                                    !- Rendering Green Value
  105;                                    !- Rendering Blue Value

OS:SpaceType,
  {712459b7-0673-408c-925d-b392e0d73c3f}, !- Handle
  corridor,                               !- Name
  ,                                       !- Default Construction Set Name
  ,                                       !- Default Schedule Set Name
  {4b0b2ba9-f838-4b27-8d0c-b78879330a4a}, !- Group Rendering Name
  ,                                       !- Design Specification Outdoor Air Object Name
  90.1-2013,                              !- Standards Template
  MidriseApartment,                       !- Standards Building Type
  Corridor;                               !- Standards Space Type

OS:Rendering:Color,
  {4b0b2ba9-f838-4b27-8d0c-b78879330a4a}, !- Handle
  Rendering Color 13,                     !- Name
  240,                                    !- Rendering Red Value
  128,                                    !- Rendering Green Value
  128;                                    !- Rendering Blue Value

