
OS:Version,
  {8e4d73d9-f9f8-46e7-b976-a314eb2b8b02}, !- Handle
  3.0.0;                                  !- Version Identifier

OS:Space,
  {a51522ba-3d3a-4d93-a585-9d781d3ea93a}, !- Handle
  Space 209,                              !- Name
  ,                                       !- Space Type Name
  ,                                       !- Default Construction Set Name
  ,                                       !- Default Schedule Set Name
  ,                                       !- Direction of Relative North {deg}
  22.86,                                  !- X Origin {m}
  16.764,                                 !- Y Origin {m}
  3.048,                                  !- Z Origin {m}
  ,                                       !- Building Story Name
  ,                                       !- Thermal Zone Name
  ,                                       !- Part of Total Floor Area
  ,                                       !- Design Specification Outdoor Air Object Name
  ;                                       !- Building Unit Name

OS:Surface,
  {359b5874-9479-4b87-852d-64490e2b5767}, !- Handle
  Surface 115,                            !- Name
  Floor,                                  !- Surface Type
  ,                                       !- Construction Name
  {a51522ba-3d3a-4d93-a585-9d781d3ea93a}, !- Space Name
  Ground,                                 !- Outside Boundary Condition
  ,                                       !- Outside Boundary Condition Object
  NoSun,                                  !- Sun Exposure
  NoWind,                                 !- Wind Exposure
  ,                                       !- View Factor to Ground
  ,                                       !- Number of Vertices
  7.62, 0, 0,                             !- X,Y,Z Vertex 1 {m}
  7.62, -7.62, 0,                         !- X,Y,Z Vertex 2 {m}
  0, -7.62, 0,                            !- X,Y,Z Vertex 3 {m}
  0, 0, 0;                                !- X,Y,Z Vertex 4 {m}

OS:Surface,
  {3dcfa86b-0f2f-4b3d-a42d-9f5e9d9bb552}, !- Handle
  Surface 116,                            !- Name
  Wall,                                   !- Surface Type
  ,                                       !- Construction Name
  {a51522ba-3d3a-4d93-a585-9d781d3ea93a}, !- Space Name
  Outdoors,                               !- Outside Boundary Condition
  ,                                       !- Outside Boundary Condition Object
  SunExposed,                             !- Sun Exposure
  WindExposed,                            !- Wind Exposure
  ,                                       !- View Factor to Ground
  ,                                       !- Number of Vertices
  7.62, 0, 3.048,                         !- X,Y,Z Vertex 1 {m}
  7.62, 0, 0,                             !- X,Y,Z Vertex 2 {m}
  0, 0, 0,                                !- X,Y,Z Vertex 3 {m}
  0, 0, 3.048;                            !- X,Y,Z Vertex 4 {m}

OS:Surface,
  {eca7e2d4-9544-4aac-b38e-9774c23d7086}, !- Handle
  Surface 117,                            !- Name
  Wall,                                   !- Surface Type
  ,                                       !- Construction Name
  {a51522ba-3d3a-4d93-a585-9d781d3ea93a}, !- Space Name
  Outdoors,                               !- Outside Boundary Condition
  ,                                       !- Outside Boundary Condition Object
  SunExposed,                             !- Sun Exposure
  WindExposed,                            !- Wind Exposure
  ,                                       !- View Factor to Ground
  ,                                       !- Number of Vertices
  7.62, -7.62, 3.048,                     !- X,Y,Z Vertex 1 {m}
  7.62, -7.62, 0,                         !- X,Y,Z Vertex 2 {m}
  7.62, 0, 0,                             !- X,Y,Z Vertex 3 {m}
  7.62, 0, 3.048;                         !- X,Y,Z Vertex 4 {m}

OS:Surface,
  {04c632c7-9274-4943-b838-4fecba96bf18}, !- Handle
  Surface 118,                            !- Name
  Wall,                                   !- Surface Type
  ,                                       !- Construction Name
  {a51522ba-3d3a-4d93-a585-9d781d3ea93a}, !- Space Name
  Outdoors,                               !- Outside Boundary Condition
  ,                                       !- Outside Boundary Condition Object
  SunExposed,                             !- Sun Exposure
  WindExposed,                            !- Wind Exposure
  ,                                       !- View Factor to Ground
  ,                                       !- Number of Vertices
  0, -7.62, 3.048,                        !- X,Y,Z Vertex 1 {m}
  0, -7.62, 0,                            !- X,Y,Z Vertex 2 {m}
  7.62, -7.62, 0,                         !- X,Y,Z Vertex 3 {m}
  7.62, -7.62, 3.048;                     !- X,Y,Z Vertex 4 {m}

OS:Surface,
  {e7ac655c-40a6-4057-89c4-450ba9fc34f6}, !- Handle
  Surface 119,                            !- Name
  Wall,                                   !- Surface Type
  ,                                       !- Construction Name
  {a51522ba-3d3a-4d93-a585-9d781d3ea93a}, !- Space Name
  Outdoors,                               !- Outside Boundary Condition
  ,                                       !- Outside Boundary Condition Object
  SunExposed,                             !- Sun Exposure
  WindExposed,                            !- Wind Exposure
  ,                                       !- View Factor to Ground
  ,                                       !- Number of Vertices
  0, 0, 3.048,                            !- X,Y,Z Vertex 1 {m}
  0, 0, 0,                                !- X,Y,Z Vertex 2 {m}
  0, -7.62, 0,                            !- X,Y,Z Vertex 3 {m}
  0, -7.62, 3.048;                        !- X,Y,Z Vertex 4 {m}

OS:Surface,
  {b532ed4b-4b66-40ff-bdf1-52e85798b7d5}, !- Handle
  Surface 120,                            !- Name
  RoofCeiling,                            !- Surface Type
  ,                                       !- Construction Name
  {a51522ba-3d3a-4d93-a585-9d781d3ea93a}, !- Space Name
  Outdoors,                               !- Outside Boundary Condition
  ,                                       !- Outside Boundary Condition Object
  SunExposed,                             !- Sun Exposure
  WindExposed,                            !- Wind Exposure
  ,                                       !- View Factor to Ground
  ,                                       !- Number of Vertices
  7.62, -7.62, 3.048,                     !- X,Y,Z Vertex 1 {m}
  7.62, 0, 3.048,                         !- X,Y,Z Vertex 2 {m}
  0, 0, 3.048,                            !- X,Y,Z Vertex 3 {m}
  0, -7.62, 3.048;                        !- X,Y,Z Vertex 4 {m}

