
OS:Version,
  {0c72c3dc-77c6-4dd8-9813-bbe1085347b9}, !- Handle
  3.0.0;                                  !- Version Identifier

OS:Space,
  {83412bb1-8ece-4119-9460-036ceee18e78}, !- Handle
  Space 102,                              !- Name
  {b6fc519c-aea6-44f4-978e-04ba755aa39d}, !- Space Type Name
  ,                                       !- Default Construction Set Name
  ,                                       !- Default Schedule Set Name
  ,                                       !- Direction of Relative North {deg}
  7.62,                                   !- X Origin {m}
  7.62,                                   !- Y Origin {m}
  0,                                      !- Z Origin {m}
  ,                                       !- Building Story Name
  ,                                       !- Thermal Zone Name
  ,                                       !- Part of Total Floor Area
  ,                                       !- Design Specification Outdoor Air Object Name
  ;                                       !- Building Unit Name

OS:Surface,
  {48140988-3c28-4b7c-bc93-f4a15787f305}, !- Handle
  Surface 7,                              !- Name
  Floor,                                  !- Surface Type
  ,                                       !- Construction Name
  {83412bb1-8ece-4119-9460-036ceee18e78}, !- Space Name
  Ground,                                 !- Outside Boundary Condition
  ,                                       !- Outside Boundary Condition Object
  NoSun,                                  !- Sun Exposure
  NoWind,                                 !- Wind Exposure
  ,                                       !- View Factor to Ground
  ,                                       !- Number of Vertices
  7.62, 0, 0,                             !- X,Y,Z Vertex 1 {m}
  7.62, -7.62, 0,                         !- X,Y,Z Vertex 2 {m}
  0, -7.62, 0,                            !- X,Y,Z Vertex 3 {m}
  0, 0, 0;                                !- X,Y,Z Vertex 4 {m}

OS:Surface,
  {3e4e9af8-7eb1-42c8-b85c-30e8e6c66e32}, !- Handle
  Surface 8,                              !- Name
  Wall,                                   !- Surface Type
  ,                                       !- Construction Name
  {83412bb1-8ece-4119-9460-036ceee18e78}, !- Space Name
  Outdoors,                               !- Outside Boundary Condition
  ,                                       !- Outside Boundary Condition Object
  SunExposed,                             !- Sun Exposure
  WindExposed,                            !- Wind Exposure
  ,                                       !- View Factor to Ground
  ,                                       !- Number of Vertices
  7.62, 0, 3.048,                         !- X,Y,Z Vertex 1 {m}
  7.62, 0, 0,                             !- X,Y,Z Vertex 2 {m}
  0, 0, 0,                                !- X,Y,Z Vertex 3 {m}
  0, 0, 3.048;                            !- X,Y,Z Vertex 4 {m}

OS:Surface,
  {9fb07af0-8692-4bf8-9fcc-44f4bf4b611c}, !- Handle
  Surface 9,                              !- Name
  Wall,                                   !- Surface Type
  ,                                       !- Construction Name
  {83412bb1-8ece-4119-9460-036ceee18e78}, !- Space Name
  Outdoors,                               !- Outside Boundary Condition
  ,                                       !- Outside Boundary Condition Object
  SunExposed,                             !- Sun Exposure
  WindExposed,                            !- Wind Exposure
  ,                                       !- View Factor to Ground
  ,                                       !- Number of Vertices
  7.62, -7.62, 3.048,                     !- X,Y,Z Vertex 1 {m}
  7.62, -7.62, 0,                         !- X,Y,Z Vertex 2 {m}
  7.62, 0, 0,                             !- X,Y,Z Vertex 3 {m}
  7.62, 0, 3.048;                         !- X,Y,Z Vertex 4 {m}

OS:Surface,
  {eb9efb1e-8f50-45ee-9f82-45f9f438fd31}, !- Handle
  Surface 10,                             !- Name
  Wall,                                   !- Surface Type
  ,                                       !- Construction Name
  {83412bb1-8ece-4119-9460-036ceee18e78}, !- Space Name
  Outdoors,                               !- Outside Boundary Condition
  ,                                       !- Outside Boundary Condition Object
  SunExposed,                             !- Sun Exposure
  WindExposed,                            !- Wind Exposure
  ,                                       !- View Factor to Ground
  ,                                       !- Number of Vertices
  0, -7.62, 3.048,                        !- X,Y,Z Vertex 1 {m}
  0, -7.62, 0,                            !- X,Y,Z Vertex 2 {m}
  7.62, -7.62, 0,                         !- X,Y,Z Vertex 3 {m}
  7.62, -7.62, 3.048;                     !- X,Y,Z Vertex 4 {m}

OS:Surface,
  {0d657127-d334-482f-b6c4-c6a10befcc15}, !- Handle
  Surface 11,                             !- Name
  Wall,                                   !- Surface Type
  ,                                       !- Construction Name
  {83412bb1-8ece-4119-9460-036ceee18e78}, !- Space Name
  Outdoors,                               !- Outside Boundary Condition
  ,                                       !- Outside Boundary Condition Object
  SunExposed,                             !- Sun Exposure
  WindExposed,                            !- Wind Exposure
  ,                                       !- View Factor to Ground
  ,                                       !- Number of Vertices
  0, 0, 3.048,                            !- X,Y,Z Vertex 1 {m}
  0, 0, 0,                                !- X,Y,Z Vertex 2 {m}
  0, -7.62, 0,                            !- X,Y,Z Vertex 3 {m}
  0, -7.62, 3.048;                        !- X,Y,Z Vertex 4 {m}

OS:Surface,
  {c90e7d76-b4df-4961-99d3-f737615edac6}, !- Handle
  Surface 12,                             !- Name
  RoofCeiling,                            !- Surface Type
  ,                                       !- Construction Name
  {83412bb1-8ece-4119-9460-036ceee18e78}, !- Space Name
  Outdoors,                               !- Outside Boundary Condition
  ,                                       !- Outside Boundary Condition Object
  SunExposed,                             !- Sun Exposure
  WindExposed,                            !- Wind Exposure
  ,                                       !- View Factor to Ground
  ,                                       !- Number of Vertices
  7.62, -7.62, 3.048,                     !- X,Y,Z Vertex 1 {m}
  7.62, 0, 3.048,                         !- X,Y,Z Vertex 2 {m}
  0, 0, 3.048,                            !- X,Y,Z Vertex 3 {m}
  0, -7.62, 3.048;                        !- X,Y,Z Vertex 4 {m}

OS:Site,
  {bffae71e-e9b2-42c8-b730-430f5d59805f}, !- Handle
  Site 1,                                 !- Name
  ,                                       !- Latitude {deg}
  ,                                       !- Longitude {deg}
  ,                                       !- Time Zone {hr}
  ,                                       !- Elevation {m}
  ;                                       !- Terrain

OS:YearDescription,
  {cb53b6dd-bb10-432f-a476-22e34c68d3d1}; !- Handle

OS:ClimateZones,
  {4158c714-5eb4-40c9-b954-582a35107edf}, !- Handle
  ASHRAE,                                 !- Climate Zone Institution Name 1
  ANSI/ASHRAE Standard 169,               !- Climate Zone Document Name 1
  2006,                                   !- Climate Zone Document Year 1
  ,                                       !- Climate Zone Value 1
  CEC,                                    !- Climate Zone Institution Name 2
  California Climate Zone Descriptions,   !- Climate Zone Document Name 2
  1995,                                   !- Climate Zone Document Year 2
  ;                                       !- Climate Zone Value 2

OS:Building,
  {55275af2-3d59-4ff4-ae8e-44d3dec6580e}, !- Handle
  Building 1,                             !- Name
  ,                                       !- Building Sector Type
  ,                                       !- North Axis {deg}
  ,                                       !- Nominal Floor to Floor Height {m}
  ,                                       !- Space Type Name
  ,                                       !- Default Construction Set Name
  ;                                       !- Default Schedule Set Name

OS:Facility,
  {2639da4a-6783-47d3-b336-d8b4db1bdd12}; !- Handle

OS:SimulationControl,
  {668042a2-460d-4355-9863-77053bafe8cc}; !- Handle

OS:Sizing:Parameters,
  {f06c2b1b-6461-4c7c-9f81-cb26ce11b384}, !- Handle
  1.25,                                   !- Heating Sizing Factor
  1.15;                                   !- Cooling Sizing Factor

OS:Timestep,
  {83d2bcb7-db56-45b9-a1c6-6a57add9fce1}, !- Handle
  6;                                      !- Number of Timesteps per Hour

OS:ShadowCalculation,
  {0c738603-e663-4c88-b1ed-b09195cfc71e}, !- Handle
  PolygonClipping,                        !- Shading Calculation Method
  ,                                       !- Shading Calculation Update Frequency Method
  20,                                     !- Shading Calculation Update Frequency
  15000,                                  !- Maximum Figures in Shadow Overlap Calculations
  ,                                       !- Polygon Clipping Algorithm
  512,                                    !- Pixel Counting Resolution
  ,                                       !- Sky Diffuse Modeling Algorithm
  No,                                     !- Output External Shading Calculation Results
  No,                                     !- Disable Self-Shading Within Shading Zone Groups
  No;                                     !- Disable Self-Shading From Shading Zone Groups to Other Zones

OS:HeatBalanceAlgorithm,
  {11d732a3-d89a-435f-bfdd-c2d1f2d8c4c9}, !- Handle
  ConductionTransferFunction,             !- Algorithm
  200;                                    !- Surface Temperature Upper Limit {C}

OS:RunPeriod,
  {70ba4444-b2ea-4f28-9e24-68e36dd90342}, !- Handle
  Run Period 1,                           !- Name
  1,                                      !- Begin Month
  1,                                      !- Begin Day of Month
  12,                                     !- End Month
  31,                                     !- End Day of Month
  ,                                       !- Use Weather File Holidays and Special Days
  ,                                       !- Use Weather File Daylight Saving Period
  ,                                       !- Apply Weekend Holiday Rule
  ,                                       !- Use Weather File Rain Indicators
  ,                                       !- Use Weather File Snow Indicators
  ;                                       !- Number of Times Runperiod to be Repeated

OS:LifeCycleCost:Parameters,
  {9ea3dd33-6e75-4e6b-92cf-a4731d88be87}, !- Handle
  ,                                       !- Analysis Type
  ,                                       !- Discounting Convention
  ,                                       !- Inflation Approach
  ,                                       !- Real Discount Rate
  ,                                       !- Nominal Discount Rate
  ,                                       !- Inflation
  ,                                       !- Base Date Month
  ,                                       !- Base Date Year
  ,                                       !- Service Date Month
  ,                                       !- Service Date Year
  ;                                       !- Length of Study Period in Years

OS:SpaceType,
  {b6fc519c-aea6-44f4-978e-04ba755aa39d}, !- Handle
  189.1-2009 - Office - Lobby - CZ4-8,    !- Name
  ,                                       !- Default Construction Set Name
  {07159b8b-b2d7-4d07-afb4-b445501e6a35}, !- Default Schedule Set Name
  {a46f3a3b-84e8-4a84-8e36-66c75a5dc199}, !- Group Rendering Name
  {d0e05e3e-97f8-4ff5-ade6-2debf6f310de}, !- Design Specification Outdoor Air Object Name
  ,                                       !- Standards Template
  Office,                                 !- Standards Building Type
  Lobby;                                  !- Standards Space Type

OS:DefaultScheduleSet,
  {07159b8b-b2d7-4d07-afb4-b445501e6a35}, !- Handle
  189.1-2009 - Office - Lobby - CZ4-8 Schedule Set, !- Name
  ,                                       !- Hours of Operation Schedule Name
  {0e80053e-14c2-49e1-b16a-c6f32bb18575}, !- Number of People Schedule Name
  {7f04e9b2-3e8e-4283-9d6c-8de2876918bb}, !- People Activity Level Schedule Name
  {7575a6dd-4811-4e34-a68d-6e2d46848302}, !- Lighting Schedule Name
  {84db3277-72d2-4014-ae90-acba87e29d88}, !- Electric Equipment Schedule Name
  ,                                       !- Gas Equipment Schedule Name
  ,                                       !- Hot Water Equipment Schedule Name
  {53da9a51-1c90-484a-9629-3690a384b8ca}, !- Infiltration Schedule Name
  ,                                       !- Steam Equipment Schedule Name
  ;                                       !- Other Equipment Schedule Name

OS:Rendering:Color,
  {a46f3a3b-84e8-4a84-8e36-66c75a5dc199}, !- Handle
  Rendering Color 23,                     !- Name
  230,                                    !- Rendering Red Value
  157,                                    !- Rendering Green Value
  120;                                    !- Rendering Blue Value

OS:DesignSpecification:OutdoorAir,
  {d0e05e3e-97f8-4ff5-ade6-2debf6f310de}, !- Handle
  189.1-2009 - Office - Lobby - CZ4-8 Ventilation, !- Name
  Sum,                                    !- Outdoor Air Method
  0.007079211648,                         !- Outdoor Air Flow per Person {m3/s-person}
  ,                                       !- Outdoor Air Flow per Floor Area {m3/s-m2}
  ,                                       !- Outdoor Air Flow Rate {m3/s}
  ,                                       !- Outdoor Air Flow Air Changes per Hour {1/hr}
  ;                                       !- Outdoor Air Flow Rate Fraction Schedule Name

OS:Schedule:Ruleset,
  {0e80053e-14c2-49e1-b16a-c6f32bb18575}, ! Handle
  Office Misc Occ,                        ! Name
  {99a9be0b-47b1-4739-b09d-442a60902064}, ! Schedule Type Limits Name
  {1c51f087-9d1a-4d16-9793-b0a38e232d86}, ! Default Day Schedule Name
  {adcef997-858c-43c2-8ee6-e3ab6c309010}, ! Summer Design Day Schedule Name
  {8a84d5eb-6752-49be-b00d-ba2ad4c6df7a}; ! Winter Design Day Schedule Name

OS:Schedule:Day,
  {1c51f087-9d1a-4d16-9793-b0a38e232d86}, ! Handle
  Office Bldg Occ Default Schedule 1,     ! Name
  {99a9be0b-47b1-4739-b09d-442a60902064}, ! Schedule Type Limits Name
  ,                                       ! Interpolate to Timestep
  6,                                      !- Hour 1
  0,                                      !- Minute 1
  0,                                      !- Value Until Time 1
  7,                                      !- Hour 2
  0,                                      !- Minute 2
  0.100000001490116,                      !- Value Until Time 2
  8,                                      !- Hour 3
  0,                                      !- Minute 3
  0.200000002980232,                      !- Value Until Time 3
  20,                                     !- Hour 4
  0,                                      !- Minute 4
  0.400000005960464,                      !- Value Until Time 4
  22,                                     !- Hour 5
  0,                                      !- Minute 5
  0.100000001490116,                      !- Value Until Time 5
  24,                                     !- Hour 6
  0,                                      !- Minute 6
  0.0500000007450581;                     !- Value Until Time 6

OS:Schedule:Day,
  {adcef997-858c-43c2-8ee6-e3ab6c309010}, ! Handle
  Office Bldg Occ Summer Design Day 1,    ! Name
  {99a9be0b-47b1-4739-b09d-442a60902064}, ! Schedule Type Limits Name
  ,                                       ! Interpolate to Timestep
  6,                                      ! Hour 1
  0,                                      ! Minute 1
  0,                                      ! Value Until Time 1
  22,                                     ! Hour 2
  0,                                      ! Minute 2
  1,                                      ! Value Until Time 2
  24,                                     ! Hour 3
  0,                                      ! Minute 3
  0.050000000000000003;                   ! Value Until Time 3

OS:Schedule:Day,
  {8a84d5eb-6752-49be-b00d-ba2ad4c6df7a}, ! Handle
  Office Bldg Occ Winter Design Day 1,    ! Name
  {99a9be0b-47b1-4739-b09d-442a60902064}, ! Schedule Type Limits Name
  ,                                       ! Interpolate to Timestep
  24,                                     ! Hour 1
  0,                                      ! Minute 1
  0;                                      ! Value Until Time 1

OS:Schedule:Rule,
  {420130d3-8a8a-4c46-859d-5a78cbef068d}, !- Handle
  Office Misc Occ Rule 1,                 !- Name
  {0e80053e-14c2-49e1-b16a-c6f32bb18575}, !- Schedule Ruleset Name
  0,                                      !- Rule Order
  {952da181-6b64-48f8-86a2-c5d8849da4c7}, !- Day Schedule Name
  Yes,                                    !- Apply Sunday
  No,                                     !- Apply Monday
  No,                                     !- Apply Tuesday
  No,                                     !- Apply Wednesday
  No,                                     !- Apply Thursday
  No,                                     !- Apply Friday
  No,                                     !- Apply Saturday
  DateRange,                              !- Date Specification Type
  1,                                      !- Start Month
  1,                                      !- Start Day
  12,                                     !- End Month
  31;                                     !- End Day

OS:Schedule:Rule,
  {465c642a-2c46-4a57-ae85-3f98e351b78f}, !- Handle
  Office Misc Occ Rule 2,                 !- Name
  {0e80053e-14c2-49e1-b16a-c6f32bb18575}, !- Schedule Ruleset Name
  1,                                      !- Rule Order
  {b72f1bc2-f7dd-4686-ab17-0ebe91c1004f}, !- Day Schedule Name
  No,                                     !- Apply Sunday
  No,                                     !- Apply Monday
  No,                                     !- Apply Tuesday
  No,                                     !- Apply Wednesday
  No,                                     !- Apply Thursday
  No,                                     !- Apply Friday
  Yes,                                    !- Apply Saturday
  DateRange,                              !- Date Specification Type
  1,                                      !- Start Month
  1,                                      !- Start Day
  12,                                     !- End Month
  31;                                     !- End Day

OS:Schedule:Day,
  {952da181-6b64-48f8-86a2-c5d8849da4c7}, ! Handle
  Office Bldg Occ Rule 1 Day Schedule 1,  ! Name
  {99a9be0b-47b1-4739-b09d-442a60902064}, ! Schedule Type Limits Name
  ,                                       ! Interpolate to Timestep
  24,                                     ! Hour 1
  0,                                      ! Minute 1
  0;                                      ! Value Until Time 1

OS:Schedule:Day,
  {b72f1bc2-f7dd-4686-ab17-0ebe91c1004f}, ! Handle
  Office Bldg Occ Rule 2 Day Schedule 1,  ! Name
  {99a9be0b-47b1-4739-b09d-442a60902064}, ! Schedule Type Limits Name
  ,                                       ! Interpolate to Timestep
  6,                                      !- Hour 1
  0,                                      !- Minute 1
  0,                                      !- Value Until Time 1
  8,                                      !- Hour 2
  0,                                      !- Minute 2
  0.100000001490116,                      !- Value Until Time 2
  14,                                     !- Hour 3
  0,                                      !- Minute 3
  0.25,                                   !- Value Until Time 3
  17,                                     !- Hour 4
  0,                                      !- Minute 4
  0.100000001490116,                      !- Value Until Time 4
  24,                                     !- Hour 5
  0,                                      !- Minute 5
  0;                                      !- Value Until Time 5

OS:Schedule:Ruleset,
  {7f04e9b2-3e8e-4283-9d6c-8de2876918bb}, ! Handle
  Office Activity,                        ! Name
  {eca114fe-3200-492d-86ed-9a3360836c93}, ! Schedule Type Limits Name
  {d3750b06-fb9e-4c97-b02f-9e4d0c9487d8}, ! Default Day Schedule Name
  {bd6fefb5-7d83-46f7-a97e-dba80f7e4557}, ! Summer Design Day Schedule Name
  {4b549a57-5dc9-41d4-9f46-84b41bfaffa2}; ! Winter Design Day Schedule Name

OS:Schedule:Day,
  {d3750b06-fb9e-4c97-b02f-9e4d0c9487d8}, ! Handle
  Office Activity Default Schedule,       ! Name
  {eca114fe-3200-492d-86ed-9a3360836c93}, ! Schedule Type Limits Name
  ,                                       ! Interpolate to Timestep
  24,                                     !- Hour 1
  0,                                      !- Minute 1
  132;                                    !- Value Until Time 1

OS:Schedule:Day,
  {bd6fefb5-7d83-46f7-a97e-dba80f7e4557}, ! Handle
  Office Activity Summer Design Day,      ! Name
  {eca114fe-3200-492d-86ed-9a3360836c93}, ! Schedule Type Limits Name
  ,                                       ! Interpolate to Timestep
  24,                                     !- Hour 1
  0,                                      !- Minute 1
  132;                                    !- Value Until Time 1

OS:Schedule:Day,
  {4b549a57-5dc9-41d4-9f46-84b41bfaffa2}, ! Handle
  Office Activity Winter Design Day,      ! Name
  {eca114fe-3200-492d-86ed-9a3360836c93}, ! Schedule Type Limits Name
  ,                                       ! Interpolate to Timestep
  24,                                     !- Hour 1
  0,                                      !- Minute 1
  132;                                    !- Value Until Time 1

OS:Schedule:Ruleset,
  {7575a6dd-4811-4e34-a68d-6e2d46848302}, ! Handle
  Office Bldg Light,                      ! Name
  {99a9be0b-47b1-4739-b09d-442a60902064}, ! Schedule Type Limits Name
  {432cbe88-70de-4f31-b6e7-552c59903d82}, ! Default Day Schedule Name
  {cc622a44-8256-4a50-91c3-82d209614c8e}, ! Summer Design Day Schedule Name
  {a97216e9-ffd4-4902-844c-77f914b18bf7}; ! Winter Design Day Schedule Name

OS:Schedule:Day,
  {432cbe88-70de-4f31-b6e7-552c59903d82}, ! Handle
  Office Bldg Light Default Schedule,     ! Name
  {99a9be0b-47b1-4739-b09d-442a60902064}, ! Schedule Type Limits Name
  ,                                       ! Interpolate to Timestep
  5,                                      !- Hour 1
  0,                                      !- Minute 1
  0.05,                                   !- Value Until Time 1
  7,                                      !- Hour 2
  0,                                      !- Minute 2
  0.1,                                    !- Value Until Time 2
  8,                                      !- Hour 3
  0,                                      !- Minute 3
  0.3,                                    !- Value Until Time 3
  17,                                     !- Hour 4
  0,                                      !- Minute 4
  0.9,                                    !- Value Until Time 4
  18,                                     !- Hour 5
  0,                                      !- Minute 5
  0.7,                                    !- Value Until Time 5
  20,                                     !- Hour 6
  0,                                      !- Minute 6
  0.5,                                    !- Value Until Time 6
  22,                                     !- Hour 7
  0,                                      !- Minute 7
  0.3,                                    !- Value Until Time 7
  23,                                     !- Hour 8
  0,                                      !- Minute 8
  0.1,                                    !- Value Until Time 8
  24,                                     !- Hour 9
  0,                                      !- Minute 9
  0.05;                                   !- Value Until Time 9

OS:Schedule:Day,
  {cc622a44-8256-4a50-91c3-82d209614c8e}, ! Handle
  Office Bldg Light Summer Design Day,    ! Name
  {99a9be0b-47b1-4739-b09d-442a60902064}, ! Schedule Type Limits Name
  ,                                       ! Interpolate to Timestep
  24,                                     ! Hour 1
  0,                                      ! Minute 1
  1;                                      ! Value Until Time 1

OS:Schedule:Day,
  {a97216e9-ffd4-4902-844c-77f914b18bf7}, ! Handle
  Office Bldg Light Winter Design Day,    ! Name
  {99a9be0b-47b1-4739-b09d-442a60902064}, ! Schedule Type Limits Name
  ,                                       ! Interpolate to Timestep
  24,                                     ! Hour 1
  0,                                      ! Minute 1
  0;                                      ! Value Until Time 1

OS:Schedule:Rule,
  {f91dbac7-4937-4933-be02-4118ce7cc96a}, !- Handle
  Office Bldg Light Rule 1,               !- Name
  {7575a6dd-4811-4e34-a68d-6e2d46848302}, !- Schedule Ruleset Name
  0,                                      !- Rule Order
  {7836b497-bb1a-457c-a43c-ec3090fef787}, !- Day Schedule Name
  Yes,                                    !- Apply Sunday
  No,                                     !- Apply Monday
  No,                                     !- Apply Tuesday
  No,                                     !- Apply Wednesday
  No,                                     !- Apply Thursday
  No,                                     !- Apply Friday
  No,                                     !- Apply Saturday
  DateRange,                              !- Date Specification Type
  1,                                      !- Start Month
  1,                                      !- Start Day
  12,                                     !- End Month
  31;                                     !- End Day

OS:Schedule:Rule,
  {0b6c4eec-9e04-49ad-ad2d-af7f244fdfb1}, !- Handle
  Office Bldg Light Rule 2,               !- Name
  {7575a6dd-4811-4e34-a68d-6e2d46848302}, !- Schedule Ruleset Name
  1,                                      !- Rule Order
  {2e75c1ea-4c21-471e-a0cd-c4773c044016}, !- Day Schedule Name
  No,                                     !- Apply Sunday
  No,                                     !- Apply Monday
  No,                                     !- Apply Tuesday
  No,                                     !- Apply Wednesday
  No,                                     !- Apply Thursday
  No,                                     !- Apply Friday
  Yes,                                    !- Apply Saturday
  DateRange,                              !- Date Specification Type
  1,                                      !- Start Month
  1,                                      !- Start Day
  12,                                     !- End Month
  31;                                     !- End Day

OS:Schedule:Day,
  {7836b497-bb1a-457c-a43c-ec3090fef787}, ! Handle
  Office Bldg Light Rule 1 Day Schedule,  ! Name
  {99a9be0b-47b1-4739-b09d-442a60902064}, ! Schedule Type Limits Name
  ,                                       ! Interpolate to Timestep
  24,                                     ! Hour 1
  0,                                      ! Minute 1
  0.050000000000000003;                   ! Value Until Time 1

OS:Schedule:Day,
  {2e75c1ea-4c21-471e-a0cd-c4773c044016}, ! Handle
  Office Bldg Light Rule 2 Day Schedule,  ! Name
  {99a9be0b-47b1-4739-b09d-442a60902064}, ! Schedule Type Limits Name
  ,                                       ! Interpolate to Timestep
  6,                                      ! Hour 1
  0,                                      ! Minute 1
  0.050000000000000003,                   ! Value Until Time 1
  8,                                      ! Hour 2
  0,                                      ! Minute 2
  0.10000000000000001,                    ! Value Until Time 2
  14,                                     ! Hour 3
  0,                                      ! Minute 3
  0.5,                                    ! Value Until Time 3
  17,                                     ! Hour 4
  0,                                      ! Minute 4
  0.14999999999999999,                    ! Value Until Time 4
  24,                                     ! Hour 5
  0,                                      ! Minute 5
  0.050000000000000003;                   ! Value Until Time 5

OS:Schedule:Ruleset,
  {84db3277-72d2-4014-ae90-acba87e29d88}, ! Handle
  Office Bldg Equip,                      ! Name
  {99a9be0b-47b1-4739-b09d-442a60902064}, ! Schedule Type Limits Name
  {6340a3c4-e37e-4d36-beab-8c7decd8568f}, ! Default Day Schedule Name
  {f0da1d16-f67d-41ee-abb8-2760461a6df4}, ! Summer Design Day Schedule Name
  {1d007c94-d1d6-4a29-8cd5-31c9ef26177e}; ! Winter Design Day Schedule Name

OS:Schedule:Day,
  {6340a3c4-e37e-4d36-beab-8c7decd8568f}, ! Handle
  Office Bldg Equip Default Schedule,     ! Name
  {99a9be0b-47b1-4739-b09d-442a60902064}, ! Schedule Type Limits Name
  ,                                       ! Interpolate to Timestep
  8,                                      !- Hour 1
  0,                                      !- Minute 1
  0.4,                                    !- Value Until Time 1
  12,                                     !- Hour 2
  0,                                      !- Minute 2
  0.9,                                    !- Value Until Time 2
  13,                                     !- Hour 3
  0,                                      !- Minute 3
  0.8,                                    !- Value Until Time 3