
OS:Version,
  {f5ef995a-d832-4fd1-b174-9ddc2329dad7}, !- Handle
  3.0.0;                                  !- Version Identifier

OS:Space,
  {2baacb48-7091-4034-a06e-09107e7ad6c6}, !- Handle
  Space 101,                              !- Name
  ,                                       !- Space Type Name
  ,                                       !- Default Construction Set Name
  ,                                       !- Default Schedule Set Name
  ,                                       !- Direction of Relative North {deg}
  0,                                      !- X Origin {m}
  7.62,                                   !- Y Origin {m}
  0,                                      !- Z Origin {m}
  ,                                       !- Building Story Name
  ,                                       !- Thermal Zone Name
  ,                                       !- Part of Total Floor Area
  ,                                       !- Design Specification Outdoor Air Object Name
  ;                                       !- Building Unit Name

OS:Surface,
  {5f3d92b1-e71a-455d-839c-24e36145408a}, !- Handle
  Surface 1,                              !- Name
  Floor,                                  !- Surface Type
  ,                                       !- Construction Name
  {2baacb48-7091-4034-a06e-09107e7ad6c6}, !- Space Name
  Ground,                                 !- Outside Boundary Condition
  ,                                       !- Outside Boundary Condition Object
  NoSun,                                  !- Sun Exposure
  NoWind,                                 !- Wind Exposure
  ,                                       !- View Factor to Ground
  ,                                       !- Number of Vertices
  7.62, 0, 0,                             !- X,Y,Z Vertex 1 {m}
  7.62, -7.62, 0,                         !- X,Y,Z Vertex 2 {m}
  0, -7.62, 0,                            !- X,Y,Z Vertex 3 {m}
  0, 0, 0;                                !- X,Y,Z Vertex 4 {m}

OS:Surface,
  {a02317e9-e5ee-4838-b514-eee117d65e11}, !- Handle
  Surface 2,                              !- Name
  Wall,                                   !- Surface Type
  ,                                       !- Construction Name
  {2baacb48-7091-4034-a06e-09107e7ad6c6}, !- Space Name
  Outdoors,                               !- Outside Boundary Condition
  ,                                       !- Outside Boundary Condition Object
  SunExposed,                             !- Sun Exposure
  WindExposed,                            !- Wind Exposure
  ,                                       !- View Factor to Ground
  ,                                       !- Number of Vertices
  7.62, 0, 3.048,                         !- X,Y,Z Vertex 1 {m}
  7.62, 0, 0,                             !- X,Y,Z Vertex 2 {m}
  0, 0, 0,                                !- X,Y,Z Vertex 3 {m}
  0, 0, 3.048;                            !- X,Y,Z Vertex 4 {m}

OS:Surface,
  {e8eb9b32-58a0-457c-b336-eb486c2e3822}, !- Handle
  Surface 3,                              !- Name
  Wall,                                   !- Surface Type
  ,                                       !- Construction Name
  {2baacb48-7091-4034-a06e-09107e7ad6c6}, !- Space Name
  Outdoors,                               !- Outside Boundary Condition
  ,                                       !- Outside Boundary Condition Object
  SunExposed,                             !- Sun Exposure
  WindExposed,                            !- Wind Exposure
  ,                                       !- View Factor to Ground
  ,                                       !- Number of Vertices
  7.62, -7.62, 3.048,                     !- X,Y,Z Vertex 1 {m}
  7.62, -7.62, 0,                         !- X,Y,Z Vertex 2 {m}
  7.62, 0, 0,                             !- X,Y,Z Vertex 3 {m}
  7.62, 0, 3.048;                         !- X,Y,Z Vertex 4 {m}

OS:Surface,
  {d6b936c1-1773-482e-aaa6-a29b8f465a02}, !- Handle
  Surface 4,                              !- Name
  Wall,                                   !- Surface Type
  ,                                       !- Construction Name
  {2baacb48-7091-4034-a06e-09107e7ad6c6}, !- Space Name
  Outdoors,                               !- Outside Boundary Condition
  ,                                       !- Outside Boundary Condition Object
  SunExposed,                             !- Sun Exposure
  WindExposed,                            !- Wind Exposure
  ,                                       !- View Factor to Ground
  ,                                       !- Number of Vertices
  0, -7.62, 3.048,                        !- X,Y,Z Vertex 1 {m}
  0, -7.62, 0,                            !- X,Y,Z Vertex 2 {m}
  7.62, -7.62, 0,                         !- X,Y,Z Vertex 3 {m}
  7.62, -7.62, 3.048;                     !- X,Y,Z Vertex 4 {m}

OS:Surface,
  {e5cc79c0-f00d-484f-ab83-66712d12f5fb}, !- Handle
  Surface 5,                              !- Name
  Wall,                                   !- Surface Type
  ,                                       !- Construction Name
  {2baacb48-7091-4034-a06e-09107e7ad6c6}, !- Space Name
  Outdoors,                               !- Outside Boundary Condition
  ,                                       !- Outside Boundary Condition Object
  SunExposed,                             !- Sun Exposure
  WindExposed,                            !- Wind Exposure
  ,                                       !- View Factor to Ground
  ,                                       !- Number of Vertices
  0, 0, 3.048,                            !- X,Y,Z Vertex 1 {m}
  0, 0, 0,                                !- X,Y,Z Vertex 2 {m}
  0, -7.62, 0,                            !- X,Y,Z Vertex 3 {m}
  0, -7.62, 3.048;                        !- X,Y,Z Vertex 4 {m}

OS:Surface,
  {c009046f-2aa1-4957-af66-a6f175fdeeaa}, !- Handle
  Surface 6,                              !- Name
  RoofCeiling,                            !- Surface Type
  ,                                       !- Construction Name
  {2baacb48-7091-4034-a06e-09107e7ad6c6}, !- Space Name
  Outdoors,                               !- Outside Boundary Condition
  ,                                       !- Outside Boundary Condition Object
  SunExposed,                             !- Sun Exposure
  WindExposed,                            !- Wind Exposure
  ,                                       !- View Factor to Ground
  ,                                       !- Number of Vertices
  7.62, -7.62, 3.048,                     !- X,Y,Z Vertex 1 {m}
  7.62, 0, 3.048,                         !- X,Y,Z Vertex 2 {m}
  0, 0, 3.048,                            !- X,Y,Z Vertex 3 {m}
  0, -7.62, 3.048;                        !- X,Y,Z Vertex 4 {m}

