
OS:Version,
  {48e7f51f-a38b-400c-8732-ff0a6fe4f2b8}, !- Handle
  3.0.0-rc1;                              !- Version Identifier

OS:Space,
  {4ba547d0-b9d9-4b50-940c-d3053e72ab38}, !- Handle
  Space 107,                              !- Name
  ,                                       !- Space Type Name
  ,                                       !- Default Construction Set Name
  ,                                       !- Default Schedule Set Name
  ,                                       !- Direction of Relative North {deg}
  7.62,                                   !- X Origin {m}
  16.764,                                 !- Y Origin {m}
  0,                                      !- Z Origin {m}
  ,                                       !- Building Story Name
  ,                                       !- Thermal Zone Name
  ,                                       !- Part of Total Floor Area
  ,                                       !- Design Specification Outdoor Air Object Name
  ;                                       !- Building Unit Name

OS:Surface,
  {38240cc3-1207-4e15-b36d-b351adcd2b9e}, !- Handle
  Surface 43,                             !- Name
  Floor,                                  !- Surface Type
  ,                                       !- Construction Name
  {4ba547d0-b9d9-4b50-940c-d3053e72ab38}, !- Space Name
  Ground,                                 !- Outside Boundary Condition
  ,                                       !- Outside Boundary Condition Object
  NoSun,                                  !- Sun Exposure
  NoWind,                                 !- Wind Exposure
  ,                                       !- View Factor to Ground
  ,                                       !- Number of Vertices
  7.62, 0, 0,                             !- X,Y,Z Vertex 1 {m}
  7.62, -7.62, 0,                         !- X,Y,Z Vertex 2 {m}
  0, -7.62, 0,                            !- X,Y,Z Vertex 3 {m}
  0, 0, 0;                                !- X,Y,Z Vertex 4 {m}

OS:Surface,
  {148bfc9a-e45c-4af4-9440-0c964555f41e}, !- Handle
  Surface 44,                             !- Name
  Wall,                                   !- Surface Type
  ,                                       !- Construction Name
  {4ba547d0-b9d9-4b50-940c-d3053e72ab38}, !- Space Name
  Outdoors,                               !- Outside Boundary Condition
  ,                                       !- Outside Boundary Condition Object
  SunExposed,                             !- Sun Exposure
  WindExposed,                            !- Wind Exposure
  ,                                       !- View Factor to Ground
  ,                                       !- Number of Vertices
  7.62, 0, 3.048,                         !- X,Y,Z Vertex 1 {m}
  7.62, 0, 0,                             !- X,Y,Z Vertex 2 {m}
  0, 0, 0,                                !- X,Y,Z Vertex 3 {m}
  0, 0, 3.048;                            !- X,Y,Z Vertex 4 {m}

OS:Surface,
  {4773a287-af5c-47fa-a596-27e10d857ad9}, !- Handle
  Surface 45,                             !- Name
  Wall,                                   !- Surface Type
  ,                                       !- Construction Name
  {4ba547d0-b9d9-4b50-940c-d3053e72ab38}, !- Space Name
  Outdoors,                               !- Outside Boundary Condition
  ,                                       !- Outside Boundary Condition Object
  SunExposed,                             !- Sun Exposure
  WindExposed,                            !- Wind Exposure
  ,                                       !- View Factor to Ground
  ,                                       !- Number of Vertices
  7.62, -7.62, 3.048,                     !- X,Y,Z Vertex 1 {m}
  7.62, -7.62, 0,                         !- X,Y,Z Vertex 2 {m}
  7.62, 0, 0,                             !- X,Y,Z Vertex 3 {m}
  7.62, 0, 3.048;                         !- X,Y,Z Vertex 4 {m}

OS:Surface,
  {fecb5680-5b23-463d-9d44-4d98c27a83d9}, !- Handle
  Surface 46,                             !- Name
  Wall,                                   !- Surface Type
  ,                                       !- Construction Name
  {4ba547d0-b9d9-4b50-940c-d3053e72ab38}, !- Space Name
  Outdoors,                               !- Outside Boundary Condition
  ,                                       !- Outside Boundary Condition Object
  SunExposed,                             !- Sun Exposure
  WindExposed,                            !- Wind Exposure
  ,                                       !- View Factor to Ground
  ,                                       !- Number of Vertices
  0, -7.62, 3.048,                        !- X,Y,Z Vertex 1 {m}
  0, -7.62, 0,                            !- X,Y,Z Vertex 2 {m}
  7.62, -7.62, 0,                         !- X,Y,Z Vertex 3 {m}
  7.62, -7.62, 3.048;                     !- X,Y,Z Vertex 4 {m}

OS:Surface,
  {78bf47ea-c20f-4821-b7dc-85c7d1b620df}, !- Handle
  Surface 47,                             !- Name
  Wall,                                   !- Surface Type
  ,                                       !- Construction Name
  {4ba547d0-b9d9-4b50-940c-d3053e72ab38}, !- Space Name
  Outdoors,                               !- Outside Boundary Condition
  ,                                       !- Outside Boundary Condition Object
  SunExposed,                             !- Sun Exposure
  WindExposed,                            !- Wind Exposure
  ,                                       !- View Factor to Ground
  ,                                       !- Number of Vertices
  0, 0, 3.048,                            !- X,Y,Z Vertex 1 {m}
  0, 0, 0,                                !- X,Y,Z Vertex 2 {m}
  0, -7.62, 0,                            !- X,Y,Z Vertex 3 {m}
  0, -7.62, 3.048;                        !- X,Y,Z Vertex 4 {m}

OS:Surface,
  {5b3e0d3f-e14f-45fb-abd7-728f40c2ccd0}, !- Handle
  Surface 48,                             !- Name
  RoofCeiling,                            !- Surface Type
  ,                                       !- Construction Name
  {4ba547d0-b9d9-4b50-940c-d3053e72ab38}, !- Space Name
  Outdoors,                               !- Outside Boundary Condition
  ,                                       !- Outside Boundary Condition Object
  SunExposed,                             !- Sun Exposure
  WindExposed,                            !- Wind Exposure
  ,                                       !- View Factor to Ground
  ,                                       !- Number of Vertices
  7.62, -7.62, 3.048,                     !- X,Y,Z Vertex 1 {m}
  7.62, 0, 3.048,                         !- X,Y,Z Vertex 2 {m}
  0, 0, 3.048,                            !- X,Y,Z Vertex 3 {m}
  0, -7.62, 3.048;                        !- X,Y,Z Vertex 4 {m}

