
OS:Version,
  {364f04a4-ad35-4932-abd2-a90e9e18570b}, !- Handle
  3.0.0-rc1;                              !- Version Identifier

OS:Space,
  {aecab9e1-1511-4cad-9410-ea60dd9c1cb9}, !- Handle
  Space 202,                              !- Name
  ,                                       !- Space Type Name
  ,                                       !- Default Construction Set Name
  ,                                       !- Default Schedule Set Name
  ,                                       !- Direction of Relative North {deg}
  7.62,                                   !- X Origin {m}
  7.62,                                   !- Y Origin {m}
  3.048,                                  !- Z Origin {m}
  ,                                       !- Building Story Name
  ,                                       !- Thermal Zone Name
  ,                                       !- Part of Total Floor Area
  ,                                       !- Design Specification Outdoor Air Object Name
  ;                                       !- Building Unit Name

OS:Surface,
  {756bc484-3eee-4e2f-a3af-830a29abdb58}, !- Handle
  Surface 72,                             !- Name
  RoofCeiling,                            !- Surface Type
  ,                                       !- Construction Name
  {aecab9e1-1511-4cad-9410-ea60dd9c1cb9}, !- Space Name
  Outdoors,                               !- Outside Boundary Condition
  ,                                       !- Outside Boundary Condition Object
  SunExposed,                             !- Sun Exposure
  WindExposed,                            !- Wind Exposure
  ,                                       !- View Factor to Ground
  ,                                       !- Number of Vertices
  7.62, -7.62, 3.048,                     !- X,Y,Z Vertex 1 {m}
  7.62, 0, 3.048,                         !- X,Y,Z Vertex 2 {m}
  0, 0, 3.048,                            !- X,Y,Z Vertex 3 {m}
  0, -7.62, 3.048;                        !- X,Y,Z Vertex 4 {m}

OS:Surface,
  {624d6471-3b66-4b63-a03f-8afc63e7a49f}, !- Handle
  Surface 70,                             !- Name
  Wall,                                   !- Surface Type
  ,                                       !- Construction Name
  {aecab9e1-1511-4cad-9410-ea60dd9c1cb9}, !- Space Name
  Outdoors,                               !- Outside Boundary Condition
  ,                                       !- Outside Boundary Condition Object
  SunExposed,                             !- Sun Exposure
  WindExposed,                            !- Wind Exposure
  ,                                       !- View Factor to Ground
  ,                                       !- Number of Vertices
  0, -7.62, 3.048,                        !- X,Y,Z Vertex 1 {m}
  0, -7.62, 0,                            !- X,Y,Z Vertex 2 {m}
  7.62, -7.62, 0,                         !- X,Y,Z Vertex 3 {m}
  7.62, -7.62, 3.048;                     !- X,Y,Z Vertex 4 {m}

OS:Surface,
  {e63df4bc-266c-4b4c-9366-da5465057c24}, !- Handle
  Surface 71,                             !- Name
  Wall,                                   !- Surface Type
  ,                                       !- Construction Name
  {aecab9e1-1511-4cad-9410-ea60dd9c1cb9}, !- Space Name
  Outdoors,                               !- Outside Boundary Condition
  ,                                       !- Outside Boundary Condition Object
  SunExposed,                             !- Sun Exposure
  WindExposed,                            !- Wind Exposure
  ,                                       !- View Factor to Ground
  ,                                       !- Number of Vertices
  0, 0, 3.048,                            !- X,Y,Z Vertex 1 {m}
  0, 0, 0,                                !- X,Y,Z Vertex 2 {m}
  0, -7.62, 0,                            !- X,Y,Z Vertex 3 {m}
  0, -7.62, 3.048;                        !- X,Y,Z Vertex 4 {m}

OS:Surface,
  {273ec015-26b4-47cd-9990-cfa53cf57542}, !- Handle
  Surface 67,                             !- Name
  Floor,                                  !- Surface Type
  ,                                       !- Construction Name
  {aecab9e1-1511-4cad-9410-ea60dd9c1cb9}, !- Space Name
  Ground,                                 !- Outside Boundary Condition
  ,                                       !- Outside Boundary Condition Object
  NoSun,                                  !- Sun Exposure
  NoWind,                                 !- Wind Exposure
  ,                                       !- View Factor to Ground
  ,                                       !- Number of Vertices
  7.62, 0, 0,                             !- X,Y,Z Vertex 1 {m}
  7.62, -7.62, 0,                         !- X,Y,Z Vertex 2 {m}
  0, -7.62, 0,                            !- X,Y,Z Vertex 3 {m}
  0, 0, 0;                                !- X,Y,Z Vertex 4 {m}

OS:Surface,
  {edb0cea7-b262-4e9e-a785-1703ab968cd2}, !- Handle
  Surface 68,                             !- Name
  Wall,                                   !- Surface Type
  ,                                       !- Construction Name
  {aecab9e1-1511-4cad-9410-ea60dd9c1cb9}, !- Space Name
  Outdoors,                               !- Outside Boundary Condition
  ,                                       !- Outside Boundary Condition Object
  SunExposed,                             !- Sun Exposure
  WindExposed,                            !- Wind Exposure
  ,                                       !- View Factor to Ground
  ,                                       !- Number of Vertices
  7.62, 0, 3.048,                         !- X,Y,Z Vertex 1 {m}
  7.62, 0, 0,                             !- X,Y,Z Vertex 2 {m}
  0, 0, 0,                                !- X,Y,Z Vertex 3 {m}
  0, 0, 3.048;                            !- X,Y,Z Vertex 4 {m}

OS:Surface,
  {e58ef6a2-0ebf-4670-bc6d-93eec7773314}, !- Handle
  Surface 69,                             !- Name
  Wall,                                   !- Surface Type
  ,                                       !- Construction Name
  {aecab9e1-1511-4cad-9410-ea60dd9c1cb9}, !- Space Name
  Outdoors,                               !- Outside Boundary Condition
  ,                                       !- Outside Boundary Condition Object
  SunExposed,                             !- Sun Exposure
  WindExposed,                            !- Wind Exposure
  ,                                       !- View Factor to Ground
  ,                                       !- Number of Vertices
  7.62, -7.62, 3.048,                     !- X,Y,Z Vertex 1 {m}
  7.62, -7.62, 0,                         !- X,Y,Z Vertex 2 {m}
  7.62, 0, 0,                             !- X,Y,Z Vertex 3 {m}
  7.62, 0, 3.048;                         !- X,Y,Z Vertex 4 {m}

