
OS:Version,
  {224e48aa-5a4f-472e-a560-a2d27af8fac9}, !- Handle
  3.0.0-rc1;                              !- Version Identifier

OS:Space,
  {a9906231-1436-4f87-a46b-f5cda3ade92d}, !- Handle
  Space 208,                              !- Name
  ,                                       !- Space Type Name
  ,                                       !- Default Construction Set Name
  ,                                       !- Default Schedule Set Name
  ,                                       !- Direction of Relative North {deg}
  15.24,                                  !- X Origin {m}
  16.764,                                 !- Y Origin {m}
  3.048,                                  !- Z Origin {m}
  ,                                       !- Building Story Name
  ,                                       !- Thermal Zone Name
  ,                                       !- Part of Total Floor Area
  ,                                       !- Design Specification Outdoor Air Object Name
  ;                                       !- Building Unit Name

OS:Surface,
  {1585651b-43d8-40e6-beb9-40c60bbeb248}, !- Handle
  Surface 109,                            !- Name
  Floor,                                  !- Surface Type
  ,                                       !- Construction Name
  {a9906231-1436-4f87-a46b-f5cda3ade92d}, !- Space Name
  Ground,                                 !- Outside Boundary Condition
  ,                                       !- Outside Boundary Condition Object
  NoSun,                                  !- Sun Exposure
  NoWind,                                 !- Wind Exposure
  ,                                       !- View Factor to Ground
  ,                                       !- Number of Vertices
  7.62, 0, 0,                             !- X,Y,Z Vertex 1 {m}
  7.62, -7.62, 0,                         !- X,Y,Z Vertex 2 {m}
  0, -7.62, 0,                            !- X,Y,Z Vertex 3 {m}
  0, 0, 0;                                !- X,Y,Z Vertex 4 {m}

OS:Surface,
  {b6b1118f-0bfd-4905-b9bc-373833283108}, !- Handle
  Surface 110,                            !- Name
  Wall,                                   !- Surface Type
  ,                                       !- Construction Name
  {a9906231-1436-4f87-a46b-f5cda3ade92d}, !- Space Name
  Outdoors,                               !- Outside Boundary Condition
  ,                                       !- Outside Boundary Condition Object
  SunExposed,                             !- Sun Exposure
  WindExposed,                            !- Wind Exposure
  ,                                       !- View Factor to Ground
  ,                                       !- Number of Vertices
  7.62, 0, 3.048,                         !- X,Y,Z Vertex 1 {m}
  7.62, 0, 0,                             !- X,Y,Z Vertex 2 {m}
  0, 0, 0,                                !- X,Y,Z Vertex 3 {m}
  0, 0, 3.048;                            !- X,Y,Z Vertex 4 {m}

OS:Surface,
  {a001ee77-95a8-474a-922a-5cb37450be57}, !- Handle
  Surface 111,                            !- Name
  Wall,                                   !- Surface Type
  ,                                       !- Construction Name
  {a9906231-1436-4f87-a46b-f5cda3ade92d}, !- Space Name
  Outdoors,                               !- Outside Boundary Condition
  ,                                       !- Outside Boundary Condition Object
  SunExposed,                             !- Sun Exposure
  WindExposed,                            !- Wind Exposure
  ,                                       !- View Factor to Ground
  ,                                       !- Number of Vertices
  7.62, -7.62, 3.048,                     !- X,Y,Z Vertex 1 {m}
  7.62, -7.62, 0,                         !- X,Y,Z Vertex 2 {m}
  7.62, 0, 0,                             !- X,Y,Z Vertex 3 {m}
  7.62, 0, 3.048;                         !- X,Y,Z Vertex 4 {m}

OS:Surface,
  {d338209d-8db5-4a35-af84-08092ecdf739}, !- Handle
  Surface 112,                            !- Name
  Wall,                                   !- Surface Type
  ,                                       !- Construction Name
  {a9906231-1436-4f87-a46b-f5cda3ade92d}, !- Space Name
  Outdoors,                               !- Outside Boundary Condition
  ,                                       !- Outside Boundary Condition Object
  SunExposed,                             !- Sun Exposure
  WindExposed,                            !- Wind Exposure
  ,                                       !- View Factor to Ground
  ,                                       !- Number of Vertices
  0, -7.62, 3.048,                        !- X,Y,Z Vertex 1 {m}
  0, -7.62, 0,                            !- X,Y,Z Vertex 2 {m}
  7.62, -7.62, 0,                         !- X,Y,Z Vertex 3 {m}
  7.62, -7.62, 3.048;                     !- X,Y,Z Vertex 4 {m}

OS:Surface,
  {6ccbffbb-b452-44c0-b263-2ab8f6a33f06}, !- Handle
  Surface 113,                            !- Name
  Wall,                                   !- Surface Type
  ,                                       !- Construction Name
  {a9906231-1436-4f87-a46b-f5cda3ade92d}, !- Space Name
  Outdoors,                               !- Outside Boundary Condition
  ,                                       !- Outside Boundary Condition Object
  SunExposed,                             !- Sun Exposure
  WindExposed,                            !- Wind Exposure
  ,                                       !- View Factor to Ground
  ,                                       !- Number of Vertices
  0, 0, 3.048,                            !- X,Y,Z Vertex 1 {m}
  0, 0, 0,                                !- X,Y,Z Vertex 2 {m}
  0, -7.62, 0,                            !- X,Y,Z Vertex 3 {m}
  0, -7.62, 3.048;                        !- X,Y,Z Vertex 4 {m}

OS:Surface,
  {b24b1d39-2d05-4ac1-9072-004e16661802}, !- Handle
  Surface 114,                            !- Name
  RoofCeiling,                            !- Surface Type
  ,                                       !- Construction Name
  {a9906231-1436-4f87-a46b-f5cda3ade92d}, !- Space Name
  Outdoors,                               !- Outside Boundary Condition
  ,                                       !- Outside Boundary Condition Object
  SunExposed,                             !- Sun Exposure
  WindExposed,                            !- Wind Exposure
  ,                                       !- View Factor to Ground
  ,                                       !- Number of Vertices
  7.62, -7.62, 3.048,                     !- X,Y,Z Vertex 1 {m}
  7.62, 0, 3.048,                         !- X,Y,Z Vertex 2 {m}
  0, 0, 3.048,                            !- X,Y,Z Vertex 3 {m}
  0, -7.62, 3.048;                        !- X,Y,Z Vertex 4 {m}

