
OS:Version,
  {58177c35-5e0d-41f0-816d-584271dc12e1}, !- Handle
  3.0.0-rc1;                              !- Version Identifier

OS:Space,
  {26d4219e-7787-4f21-a455-55aeeb038dbb}, !- Handle
  Space 103,                              !- Name
  ,                                       !- Space Type Name
  ,                                       !- Default Construction Set Name
  ,                                       !- Default Schedule Set Name
  ,                                       !- Direction of Relative North {deg}
  15.24,                                  !- X Origin {m}
  7.62,                                   !- Y Origin {m}
  0,                                      !- Z Origin {m}
  ,                                       !- Building Story Name
  ,                                       !- Thermal Zone Name
  ,                                       !- Part of Total Floor Area
  ,                                       !- Design Specification Outdoor Air Object Name
  ;                                       !- Building Unit Name

OS:Surface,
  {948e48be-be6b-4311-a119-0bb05001f1c9}, !- Handle
  Surface 13,                             !- Name
  Floor,                                  !- Surface Type
  ,                                       !- Construction Name
  {26d4219e-7787-4f21-a455-55aeeb038dbb}, !- Space Name
  Ground,                                 !- Outside Boundary Condition
  ,                                       !- Outside Boundary Condition Object
  NoSun,                                  !- Sun Exposure
  NoWind,                                 !- Wind Exposure
  ,                                       !- View Factor to Ground
  ,                                       !- Number of Vertices
  7.62, 0, 0,                             !- X,Y,Z Vertex 1 {m}
  7.62, -7.62, 0,                         !- X,Y,Z Vertex 2 {m}
  0, -7.62, 0,                            !- X,Y,Z Vertex 3 {m}
  0, 0, 0;                                !- X,Y,Z Vertex 4 {m}

OS:Surface,
  {5fbb532d-f03f-4f0f-b051-5997c6411ed1}, !- Handle
  Surface 14,                             !- Name
  Wall,                                   !- Surface Type
  ,                                       !- Construction Name
  {26d4219e-7787-4f21-a455-55aeeb038dbb}, !- Space Name
  Outdoors,                               !- Outside Boundary Condition
  ,                                       !- Outside Boundary Condition Object
  SunExposed,                             !- Sun Exposure
  WindExposed,                            !- Wind Exposure
  ,                                       !- View Factor to Ground
  ,                                       !- Number of Vertices
  7.62, 0, 3.048,                         !- X,Y,Z Vertex 1 {m}
  7.62, 0, 0,                             !- X,Y,Z Vertex 2 {m}
  0, 0, 0,                                !- X,Y,Z Vertex 3 {m}
  0, 0, 3.048;                            !- X,Y,Z Vertex 4 {m}

OS:Surface,
  {4bf1619f-354c-4cd0-accc-42465c211b7c}, !- Handle
  Surface 15,                             !- Name
  Wall,                                   !- Surface Type
  ,                                       !- Construction Name
  {26d4219e-7787-4f21-a455-55aeeb038dbb}, !- Space Name
  Outdoors,                               !- Outside Boundary Condition
  ,                                       !- Outside Boundary Condition Object
  SunExposed,                             !- Sun Exposure
  WindExposed,                            !- Wind Exposure
  ,                                       !- View Factor to Ground
  ,                                       !- Number of Vertices
  7.62, -7.62, 3.048,                     !- X,Y,Z Vertex 1 {m}
  7.62, -7.62, 0,                         !- X,Y,Z Vertex 2 {m}
  7.62, 0, 0,                             !- X,Y,Z Vertex 3 {m}
  7.62, 0, 3.048;                         !- X,Y,Z Vertex 4 {m}

OS:Surface,
  {d25451bc-f1af-4da1-8346-22f09364b38a}, !- Handle
  Surface 17,                             !- Name
  Wall,                                   !- Surface Type
  ,                                       !- Construction Name
  {26d4219e-7787-4f21-a455-55aeeb038dbb}, !- Space Name
  Outdoors,                               !- Outside Boundary Condition
  ,                                       !- Outside Boundary Condition Object
  SunExposed,                             !- Sun Exposure
  WindExposed,                            !- Wind Exposure
  ,                                       !- View Factor to Ground
  ,                                       !- Number of Vertices
  0, 0, 3.048,                            !- X,Y,Z Vertex 1 {m}
  0, 0, 0,                                !- X,Y,Z Vertex 2 {m}
  0, -7.62, 0,                            !- X,Y,Z Vertex 3 {m}
  0, -7.62, 3.048;                        !- X,Y,Z Vertex 4 {m}

OS:Surface,
  {534f3d04-b340-442b-b9be-5ffe327d06d1}, !- Handle
  Surface 18,                             !- Name
  RoofCeiling,                            !- Surface Type
  ,                                       !- Construction Name
  {26d4219e-7787-4f21-a455-55aeeb038dbb}, !- Space Name
  Outdoors,                               !- Outside Boundary Condition
  ,                                       !- Outside Boundary Condition Object
  SunExposed,                             !- Sun Exposure
  WindExposed,                            !- Wind Exposure
  ,                                       !- View Factor to Ground
  ,                                       !- Number of Vertices
  7.62, -7.62, 3.048,                     !- X,Y,Z Vertex 1 {m}
  7.62, 0, 3.048,                         !- X,Y,Z Vertex 2 {m}
  0, 0, 3.048,                            !- X,Y,Z Vertex 3 {m}
  0, -7.62, 3.048;                        !- X,Y,Z Vertex 4 {m}

OS:Surface,
  {d4b85ec8-83d1-47df-a121-701c05071ede}, !- Handle
  Surface 16,                             !- Name
  Wall,                                   !- Surface Type
  ,                                       !- Construction Name
  {26d4219e-7787-4f21-a455-55aeeb038dbb}, !- Space Name
  Outdoors,                               !- Outside Boundary Condition
  ,                                       !- Outside Boundary Condition Object
  SunExposed,                             !- Sun Exposure
  WindExposed,                            !- Wind Exposure
  ,                                       !- View Factor to Ground
  ,                                       !- Number of Vertices
  0, -7.62, 3.048,                        !- X,Y,Z Vertex 1 {m}
  0, -7.62, 0,                            !- X,Y,Z Vertex 2 {m}
  7.62, -7.62, 0,                         !- X,Y,Z Vertex 3 {m}
  7.62, -7.62, 3.048;                     !- X,Y,Z Vertex 4 {m}

