
OS:Version,
  {10b47c5e-75b8-4276-865c-44eb62752140}, !- Handle
  3.0.0;                                  !- Version Identifier

OS:Space,
  {a30d8412-8f2c-49fb-8de1-92ab3b7e8473}, !- Handle
  Space 205,                              !- Name
  {e30a6467-222b-4fad-a612-16685370ef73}, !- Space Type Name
  ,                                       !- Default Construction Set Name
  ,                                       !- Default Schedule Set Name
  ,                                       !- Direction of Relative North {deg}
  30.48,                                  !- X Origin {m}
  9.144,                                  !- Y Origin {m}
  3.048,                                  !- Z Origin {m}
  ,                                       !- Building Story Name
  ,                                       !- Thermal Zone Name
  ,                                       !- Part of Total Floor Area
  ,                                       !- Design Specification Outdoor Air Object Name
  ;                                       !- Building Unit Name

OS:Surface,
  {309d6cd8-8850-43c5-8288-f951e8443896}, !- Handle
  Surface 85,                             !- Name
  Floor,                                  !- Surface Type
  ,                                       !- Construction Name
  {a30d8412-8f2c-49fb-8de1-92ab3b7e8473}, !- Space Name
  Ground,                                 !- Outside Boundary Condition
  ,                                       !- Outside Boundary Condition Object
  NoSun,                                  !- Sun Exposure
  NoWind,                                 !- Wind Exposure
  ,                                       !- View Factor to Ground
  ,                                       !- Number of Vertices
  0, 0, 0,                                !- X,Y,Z Vertex 1 {m}
  0, -1.524, 0,                           !- X,Y,Z Vertex 2 {m}
  -30.48, -1.524, 0,                      !- X,Y,Z Vertex 3 {m}
  -30.48, 0, 0;                           !- X,Y,Z Vertex 4 {m}

OS:Surface,
  {8d599ea5-8dd3-46c8-abb4-845d2b33e2a4}, !- Handle
  Surface 86,                             !- Name
  Wall,                                   !- Surface Type
  ,                                       !- Construction Name
  {a30d8412-8f2c-49fb-8de1-92ab3b7e8473}, !- Space Name
  Outdoors,                               !- Outside Boundary Condition
  ,                                       !- Outside Boundary Condition Object
  SunExposed,                             !- Sun Exposure
  WindExposed,                            !- Wind Exposure
  ,                                       !- View Factor to Ground
  ,                                       !- Number of Vertices
  0, -1.524, 3.048,                       !- X,Y,Z Vertex 1 {m}
  0, -1.524, 0,                           !- X,Y,Z Vertex 2 {m}
  0, 0, 0,                                !- X,Y,Z Vertex 3 {m}
  0, 0, 3.048;                            !- X,Y,Z Vertex 4 {m}

OS:Surface,
  {766d1911-16d7-4b5f-a526-faa970d9310a}, !- Handle
  Surface 87,                             !- Name
  Wall,                                   !- Surface Type
  ,                                       !- Construction Name
  {a30d8412-8f2c-49fb-8de1-92ab3b7e8473}, !- Space Name
  Outdoors,                               !- Outside Boundary Condition
  ,                                       !- Outside Boundary Condition Object
  SunExposed,                             !- Sun Exposure
  WindExposed,                            !- Wind Exposure
  ,                                       !- View Factor to Ground
  ,                                       !- Number of Vertices
  -7.62, -1.524, 3.048,                   !- X,Y,Z Vertex 1 {m}
  -7.62, -1.524, 0,                       !- X,Y,Z Vertex 2 {m}
  0, -1.524, 0,                           !- X,Y,Z Vertex 3 {m}
  0, -1.524, 3.048;                       !- X,Y,Z Vertex 4 {m}

OS:Surface,
  {4c6210b3-4f84-4992-8ecb-9e7252c65454}, !- Handle
  Surface 88,                             !- Name
  Wall,                                   !- Surface Type
  ,                                       !- Construction Name
  {a30d8412-8f2c-49fb-8de1-92ab3b7e8473}, !- Space Name
  Outdoors,                               !- Outside Boundary Condition
  ,                                       !- Outside Boundary Condition Object
  SunExposed,                             !- Sun Exposure
  WindExposed,                            !- Wind Exposure
  ,                                       !- View Factor to Ground
  ,                                       !- Number of Vertices
  -15.24, -1.524, 3.048,                  !- X,Y,Z Vertex 1 {m}
  -15.24, -1.524, 0,                      !- X,Y,Z Vertex 2 {m}
  -7.62, -1.524, 0,                       !- X,Y,Z Vertex 3 {m}
  -7.62, -1.524, 3.048;                   !- X,Y,Z Vertex 4 {m}

OS:Surface,
  {cbfee649-3b49-4d8b-aa2e-a19beb954241}, !- Handle
  Surface 89,                             !- Name
  Wall,                                   !- Surface Type
  ,                                       !- Construction Name
  {a30d8412-8f2c-49fb-8de1-92ab3b7e8473}, !- Space Name
  Outdoors,                               !- Outside Boundary Condition
  ,                                       !- Outside Boundary Condition Object
  SunExposed,                             !- Sun Exposure
  WindExposed,                            !- Wind Exposure
  ,                                       !- View Factor to Ground
  ,                                       !- Number of Vertices
  -22.86, -1.524, 3.048,                  !- X,Y,Z Vertex 1 {m}
  -22.86, -1.524, 0,                      !- X,Y,Z Vertex 2 {m}
  -15.24, -1.524, 0,                      !- X,Y,Z Vertex 3 {m}
  -15.24, -1.524, 3.048;                  !- X,Y,Z Vertex 4 {m}

OS:Surface,
  {6c4acbc0-bd48-42a3-8aec-783d125148cf}, !- Handle
  Surface 90,                             !- Name
  Wall,                                   !- Surface Type
  ,                                       !- Construction Name
  {a30d8412-8f2c-49fb-8de1-92ab3b7e8473}, !- Space Name
  Outdoors,                               !- Outside Boundary Condition
  ,                                       !- Outside Boundary Condition Object
  SunExposed,                             !- Sun Exposure
  WindExposed,                            !- Wind Exposure
  ,                                       !- View Factor to Ground
  ,                                       !- Number of Vertices
  -30.48, -1.524, 3.048,                  !- X,Y,Z Vertex 1 {m}
  -30.48, -1.524, 0,                      !- X,Y,Z Vertex 2 {m}
  -22.86, -1.524, 0,                      !- X,Y,Z Vertex 3 {m}
  -22.86, -1.524, 3.048;                  !- X,Y,Z Vertex 4 {m}

OS:Surface,
  {c24639ac-b64c-49de-8445-019eca997857}, !- Handle
  Surface 91,                             !- Name
  Wall,                                   !- Surface Type
  ,                                       !- Construction Name
  {a30d8412-8f2c-49fb-8de1-92ab3b7e8473}, !- Space Name
  Outdoors,                               !- Outside Boundary Condition
  ,                                       !- Outside Boundary Condition Object
  SunExposed,                             !- Sun Exposure
  WindExposed,                            !- Wind Exposure
  ,                                       !- View Factor to Ground
  ,                                       !- Number of Vertices
  -30.48, 0, 3.048,                       !- X,Y,Z Vertex 1 {m}
  -30.48, 0, 0,                           !- X,Y,Z Vertex 2 {m}
  -30.48, -1.524, 0,                      !- X,Y,Z Vertex 3 {m}
  -30.48, -1.524, 3.048;                  !- X,Y,Z Vertex 4 {m}

OS:Surface,
  {62cf1a97-e370-4001-83e8-df537e3dac44}, !- Handle
  Surface 92,                             !- Name
  Wall,                                   !- Surface Type
  ,                                       !- Construction Name
  {a30d8412-8f2c-49fb-8de1-92ab3b7e8473}, !- Space Name
  Outdoors,                               !- Outside Boundary Condition
  ,                                       !- Outside Boundary Condition Object
  SunExposed,                             !- Sun Exposure
  WindExposed,                            !- Wind Exposure
  ,                                       !- View Factor to Ground
  ,                                       !- Number of Vertices
  -22.86, 0, 3.048,                       !- X,Y,Z Vertex 1 {m}
  -22.86, 0, 0,                           !- X,Y,Z Vertex 2 {m}
  -30.48, 0, 0,                           !- X,Y,Z Vertex 3 {m}
  -30.48, 0, 3.048;                       !- X,Y,Z Vertex 4 {m}

OS:Surface,
  {90190f45-fec0-484b-8f85-ff1463c94480}, !- Handle
  Surface 93,                             !- Name
  Wall,                                   !- Surface Type
  ,                                       !- Construction Name
  {a30d8412-8f2c-49fb-8de1-92ab3b7e8473}, !- Space Name
  Outdoors,                               !- Outside Boundary Condition
  ,                                       !- Outside Boundary Condition Object
  SunExposed,                             !- Sun Exposure
  WindExposed,                            !- Wind Exposure
  ,                                       !- View Factor to Ground
  ,                                       !- Number of Vertices
  -15.24, 0, 3.048,                       !- X,Y,Z Vertex 1 {m}
  -15.24, 0, 0,                           !- X,Y,Z Vertex 2 {m}
  -22.86, 0, 0,                           !- X,Y,Z Vertex 3 {m}
  -22.86, 0, 3.048;                       !- X,Y,Z Vertex 4 {m}

OS:Surface,
  {8407cf3f-db65-4780-9c24-e22c468b7733}, !- Handle
  Surface 94,                             !- Name
  Wall,                                   !- Surface Type
  ,                                       !- Construction Name
  {a30d8412-8f2c-49fb-8de1-92ab3b7e8473}, !- Space Name
  Outdoors,                               !- Outside Boundary Condition
  ,                                       !- Outside Boundary Condition Object
  SunExposed,                             !- Sun Exposure
  WindExposed,                            !- Wind Exposure
  ,                                       !- View Factor to Ground
  ,                                       !- Number of Vertices
  -7.62, 0, 3.048,                        !- X,Y,Z Vertex 1 {m}
  -7.62, 0, 0,                            !- X,Y,Z Vertex 2 {m}
  -15.24, 0, 0,                           !- X,Y,Z Vertex 3 {m}
  -15.24, 0, 3.048;                       !- X,Y,Z Vertex 4 {m}

OS:Surface,
  {8c0a12b5-2afe-42e7-be0f-b9d235e13517}, !- Handle
  Surface 95,                             !- Name
  Wall,                                   !- Surface Type
  ,                                       !- Construction Name
  {a30d8412-8f2c-49fb-8de1-92ab3b7e8473}, !- Space Name
  Outdoors,                               !- Outside Boundary Condition
  ,                                       !- Outside Boundary Condition Object
  SunExposed,                             !- Sun Exposure
  WindExposed,                            !- Wind Exposure
  ,                                       !- View Factor to Ground
  ,                                       !- Number of Vertices
  0, 0, 3.048,                            !- X,Y,Z Vertex 1 {m}
  0, 0, 0,                                !- X,Y,Z Vertex 2 {m}
  -7.62, 0, 0,                            !- X,Y,Z Vertex 3 {m}
  -7.62, 0, 3.048;                        !- X,Y,Z Vertex 4 {m}

OS:Surface,
  {10f6432a-477a-49df-b650-61f752923f83}, !- Handle
  Surface 96,                             !- Name
  RoofCeiling,                            !- Surface Type
  ,                                       !- Construction Name
  {a30d8412-8f2c-49fb-8de1-92ab3b7e8473}, !- Space Name
  Outdoors,                               !- Outside Boundary Condition
  ,                                       !- Outside Boundary Condition Object
  SunExposed,                             !- Sun Exposure
  WindExposed,                            !- Wind Exposure
  ,                                       !- View Factor to Ground
  ,                                       !- Number of Vertices
  0, -1.524, 3.048,                       !- X,Y,Z Vertex 1 {m}
  0, 0, 3.048,                            !- X,Y,Z Vertex 2 {m}
  -30.48, 0, 3.048,                       !- X,Y,Z Vertex 3 {m}
  -30.48, -1.524, 3.048;                  !- X,Y,Z Vertex 4 {m}

OS:Site,
  {8aea4d88-5576-42e3-a719-85f8c21250cc}, !- Handle
  Site 1,                                 !- Name
  ,                                       !- Latitude {deg}
  ,                                       !- Longitude {deg}
  ,                                       !- Time Zone {hr}
  ,                                       !- Elevation {m}
  ;                                       !- Terrain

OS:YearDescription,
  {4458c00f-4883-4d96-8886-2220a231dfc9}; !- Handle

OS:ClimateZones,
  {23d4bd2f-5d1d-4791-9f6a-95888f683b5b}, !- Handle
  ASHRAE,                                 !- Climate Zone Institution Name 1
  ANSI/ASHRAE Standard 169,               !- Climate Zone Document Name 1
  2006,                                   !- Climate Zone Document Year 1
  ,                                       !- Climate Zone Value 1
  CEC,                                    !- Climate Zone Institution Name 2
  California Climate Zone Descriptions,   !- Climate Zone Document Name 2
  1995,                                   !- Climate Zone Document Year 2
  ;                                       !- Climate Zone Value 2

OS:Building,
  {5331f643-6309-4c9b-8945-b864b6c870a1}, !- Handle
  Building 1,                             !- Name
  ,                                       !- Building Sector Type
  ,                                       !- North Axis {deg}
  ,                                       !- Nominal Floor to Floor Height {m}
  ,                                       !- Space Type Name
  ,                                       !- Default Construction Set Name
  ;                                       !- Default Schedule Set Name

OS:Facility,
  {9ba8b9ff-7f39-4b15-8d3e-fe8aae0e0887}; !- Handle

OS:SimulationControl,
  {b7438de4-e3ce-4099-b913-07198538b4d4}; !- Handle

OS:Sizing:Parameters,
  {89554145-d91f-4ab1-b8d3-d9040d4e2a3f}, !- Handle
  1.25,                                   !- Heating Sizing Factor
  1.15;                                   !- Cooling Sizing Factor

OS:Timestep,
  {87ec702d-3f1b-4aa3-beaf-40ed5c3208cc}, !- Handle
  6;                                      !- Number of Timesteps per Hour

OS:ShadowCalculation,
  {74706fde-03fd-4b1b-96f3-a63b3122cd75}, !- Handle
  PolygonClipping,                        !- Shading Calculation Method
  ,                                       !- Shading Calculation Update Frequency Method
  20,                                     !- Shading Calculation Update Frequency
  15000,                                  !- Maximum Figures in Shadow Overlap Calculations
  ,                                       !- Polygon Clipping Algorithm
  512,                                    !- Pixel Counting Resolution
  ,                                       !- Sky Diffuse Modeling Algorithm
  No,                                     !- Output External Shading Calculation Results
  No,                                     !- Disable Self-Shading Within Shading Zone Groups
  No;                                     !- Disable Self-Shading From Shading Zone Groups to Other Zones

OS:HeatBalanceAlgorithm,
  {e7fb2ed0-a339-44a3-97ca-01de5eec8444}, !- Handle
  ConductionTransferFunction,             !- Algorithm
  200;                                    !- Surface Temperature Upper Limit {C}

OS:RunPeriod,
  {26de993a-1ed4-4702-8138-414649e94a02}, !- Handle
  Run Period 1,                           !- Name
  1,                                      !- Begin Month
  1,                                      !- Begin Day of Month
  12,                                     !- End Month
  31,                                     !- End Day of Month
  ,                                       !- Use Weather File Holidays and Special Days
  ,                                       !- Use Weather File Daylight Saving Period
  ,                                       !- Apply Weekend Holiday Rule
  ,                                       !- Use Weather File Rain Indicators
  ,                                       !- Use Weather File Snow Indicators
  ;                                       !- Number of Times Runperiod to be Repeated

OS:LifeCycleCost:Parameters,
  {3ee65f84-161c-4fff-bfe7-8abbacc0e797}, !- Handle
  ,                                       !- Analysis Type
  ,                                       !- Discounting Convention
  ,                                       !- Inflation Approach
  ,                                       !- Real Discount Rate
  ,                                       !- Nominal Discount Rate
  ,                                       !- Inflation
  ,                                       !- Base Date Month
  ,                                       !- Base Date Year
  ,                                       !- Service Date Month
  ,                                       !- Service Date Year
  ;                                       !- Length of Study Period in Years

OS:SpaceType,
  {e30a6467-222b-4fad-a612-16685370ef73}, !- Handle
  189.1-2009 - Office - Corridor - CZ4-8, !- Name
  ,                                       !- Default Construction Set Name
  {2a8e7da9-8676-460d-89ef-f1e59561f5c9}, !- Default Schedule Set Name
  {0dbb8376-1b51-4f8b-8aa2-b31e4bebce07}, !- Group Rendering Name
  {49ff8474-592b-4c74-8e4d-a31a609b7e0f}, !- Design Specification Outdoor Air Object Name
  ,                                       !- Standards Template
  Office,                                 !- Standards Building Type
  Corridor;                               !- Standards Space Type

OS:DefaultScheduleSet,
  {2a8e7da9-8676-460d-89ef-f1e59561f5c9}, !- Handle
  189.1-2009 - Office - Corridor - CZ4-8 Schedule Set, !- Name
  ,                                       !- Hours of Operation Schedule Name
  {31af3885-5b6f-4166-91f7-7390603f6c06}, !- Number of People Schedule Name
  {29e75e61-3ef3-4e1d-8bae-154c1dd71c23}, !- People Activity Level Schedule Name
  {e9e4871a-daec-45bb-be23-d2af9128914f}, !- Lighting Schedule Name
  {e19df134-7704-45a9-825f-75fdcd43b0bc}, !- Electric Equipment Schedule Name
  ,                                       !- Gas Equipment Schedule Name
  ,                                       !- Hot Water Equipment Schedule Name
  {af2b2078-82c6-4c53-8c62-59874aa37a6f}, !- Infiltration Schedule Name
  ,                                       !- Steam Equipment Schedule Name
  ;                                       !- Other Equipment Schedule Name

OS:Rendering:Color,
  {0dbb8376-1b51-4f8b-8aa2-b31e4bebce07}, !- Handle
  Rendering Color 20,                     !- Name
  169,                                    !- Rendering Red Value
  31,                                     !- Rendering Green Value
  31;                                     !- Rendering Blue Value

OS:DesignSpecification:OutdoorAir,
  {49ff8474-592b-4c74-8e4d-a31a609b7e0f}, !- Handle
  189.1-2009 - Office - Corridor - CZ4-8 Ventilation, !- Name
  Sum,                                    !- Outdoor Air Method
  ,                                       !- Outdoor Air Flow per Person {m3/s-person}
  0.000254,                               !- Outdoor Air Flow per Floor Area {m3/s-m2}
  ,                                       !- Outdoor Air Flow Rate {m3/s}
  ,                                       !- Outdoor Air Flow Air Changes per Hour {1/hr}
  ;                                       !- Outdoor Air Flow Rate Fraction Schedule Name

OS:Schedule:Ruleset,
  {31af3885-5b6f-4166-91f7-7390603f6c06}, ! Handle
  Office Work Occ,                        ! Name
  {dabc32e3-1894-402e-ab29-e0cda3b5df14}, ! Schedule Type Limits Name
  {2932a31c-c2dc-4f3b-8854-33c94a3e4ed4}, ! Default Day Schedule Name
  {4f15ae52-a173-46f1-863d-e8a369237972}, ! Summer Design Day Schedule Name
  {413ef413-5853-4059-98a7-c5ec0a7000ad}; ! Winter Design Day Schedule Name

OS:Schedule:Day,
  {2932a31c-c2dc-4f3b-8854-33c94a3e4ed4}, ! Handle
  Office Bldg Occ Default Schedule,       ! Name
  {dabc32e3-1894-402e-ab29-e0cda3b5df14}, ! Schedule Type Limits Name
  ,                                       ! Interpolate to Timestep
  6,                                      !- Hour 1
  0,                                      !- Minute 1
  0,                                      !- Value Until Time 1
  7,                                      !- Hour 2
  0,                                      !- Minute 2
  0.100000001490116,                      !- Value Until Time 2
  8,                                      !- Hour 3
  0,                                      !- Minute 3
  0.200000002980232,                      !- Value Until Time 3
  12,                                     !- Hour 4
  0,                                      !- Minute 4
  0.850000023841858,                      !- Value Until Time 4
  13,                                     !- Hour 5
  0,                                      !- Minute 5
  0.5,                                    !- Value Until Time 5
  17,                                     !- Hour 6
  0,                                      !- Minute 6
  0.850000023841858,                      !- Value Until Time 6
  18,                                     !- Hour 7
  0,                                      !- Minute 7
  0.699999988079071,                      !- Value Until Time 7
  20,                                     !- Hour 8
  0,                                      !- Minute 8
  0.400000005960464,                      !- Value Until Time 8
  22,                                     !- Hour 9
  0,                                      !- Minute 9
  0.100000001490116,                      !- Value Until Time 9
  24,                                     !- Hour 10
  0,                                      !- Minute 10
  0.0500000007450581;                     !- Value Until Time 10

OS:Schedule:Day,
  {4f15ae52-a173-46f1-863d-e8a369237972}, ! Handle
  Office Bldg Occ Summer Design Day,      ! Name
  {dabc32e3-1894-402e-ab29-e0cda3b5df14}, ! Schedule Type Limits Name
  ,                                       ! Interpolate to Timestep
  6,                                      ! Hour 1
  0,                                      ! Minute 1
  0,                                      ! Value Until Time 1
  22,                                     ! Hour 2
  0,                                      ! Minute 2
  1,                                      ! Value Until Time 2
  24,                                     ! Hour 3
  0,                                      ! Minute 3
  0.050000000000000003;                   ! Value Until Time 3

OS:Schedule:Day,
  {413ef413-5853-4059-98a7-c5ec0a7000ad}, ! Handle
  Office Bldg Occ Winter Design Day,      ! Name
  {dabc32e3-1894-402e-ab29-e0cda3b5df14}, ! Schedule Type Limits Name
  ,                                       ! Interpolate to Timestep
  24,                                     ! Hour 1
  0,                                      ! Minute 1
  0;                                      ! Value Until Time 1

OS:Schedule:Rule,
  {e6d2c896-42f1-4354-8899-d20b06fbf686}, !- Handle
  Office Work Occ Rule 1,                 !- Name
  {31af3885-5b6f-4166-91f7-7390603f6c06}, !- Schedule Ruleset Name
  0,                                      !- Rule Order
  {affbd57b-61a7-443c-a893-0bd97be58291}, !- Day Schedule Name
  Yes,                                    !- Apply Sunday
  No,                                     !- Apply Monday
  No,                                     !- Apply Tuesday
  No,                                     !- Apply Wednesday
  No,                                     !- Apply Thursday
  No,                                     !- Apply Friday
  No,                                     !- Apply Saturday
  DateRange,                              !- Date Specification Type
  1,                                      !- Start Month
  1,                                      !- Start Day
  12,                                     !- End Month
  31;                                     !- End Day

OS:Schedule:Rule,
  {4937ab83-60d5-4ab5-b870-fd1ce985f4f4}, !- Handle
  Office Work Occ Rule 2,                 !- Name
  {31af3885-5b6f-4166-91f7-7390603f6c06}, !- Schedule Ruleset Name
  1,                                      !- Rule Order
  {9c871143-907a-48cc-8aa1-e122ad60c686}, !- Day Schedule Name
  No,                                     !- Apply Sunday
  No,                                     !- Apply Monday
  No,                                     !- Apply Tuesday
  No,                                     !- Apply Wednesday
  No,                                     !- Apply Thursday
  No,                                     !- Apply Friday
  Yes,                                    !- Apply Saturday
  DateRange,                              !- Date Specification Type
  1,                                      !- Start Month
  1,                                      !- Start Day
  12,                                     !- End Month
  31;                                     !- End Day

OS:Schedule:Day,
  {affbd57b-61a7-443c-a893-0bd97be58291}, ! Handle
  Office Bldg Occ Rule 1 Day Schedule,    ! Name
  {dabc32e3-1894-402e-ab29-e0cda3b5df14}, ! Schedule Type Limits Name
  ,                                       ! Interpolate to Timestep
  24,                                     ! Hour 1
  0,                                      ! Minute 1
  0;                                      ! Value Until Time 1

OS:Schedule:Day,
  {9c871143-907a-48cc-8aa1-e122ad60c686}, ! Handle
  Office Bldg Occ Rule 2 Day Schedule,    ! Name
  {dabc32e3-1894-402e-ab29-e0cda3b5df14}, ! Schedule Type Limits Name
  ,                                       ! Interpolate to Timestep
  6,                                      !- Hour 1
  0,                                      !- Minute 1
  0,                                      !- Value Until Time 1
  8,                                      !- Hour 2
  0,                                      !- Minute 2
  0.100000001490116,                      !- Value Until Time 2
  14,                                     !- Hour 3
  0,                                      !- Minute 3
  0.400000005960464,                      !- Value Until Time 3
  17,                                     !- Hour 4
  0,                                      !- Minute 4
  0.100000001490116,                      !- Value Until Time 4
  24,                                     !- Hour 5
  0,                                      !- Minute 5
  0;                                      !- Value Until Time 5

OS:Schedule:Ruleset,
  {29e75e61-3ef3-4e1d-8bae-154c1dd71c23}, ! Handle
  Office Activity,                        ! Name
  {4c72edb1-b275-4e8b-bb64-017d7be3d1e8}, ! Schedule Type Limits Name
  {9193844c-b402-4654-b824-f5b5e8edd531}, ! Default Day Schedule Name
  {74b52d2f-cd5a-4a46-95c5-c575345a99bc}, ! Summer Design Day Schedule Name
  {bfac7a54-e3e9-4eac-a7c9-29f0a42c7dae}; ! Winter Design Day Schedule Name

OS:Schedule:Day,
  {9193844c-b402-4654-b824-f5b5e8edd531}, ! Handle
  Office Activity Default Schedule,       ! Name
  {4c72edb1-b275-4e8b-bb64-017d7be3d1e8}, ! Schedule Type Limits Name
  ,                                       ! Interpolate to Timestep
  24,                                     !- Hour 1
  0,                                      !- Minute 1
  132;                                    !- Value Until Time 1

OS:Schedule:Day,
  {74b52d2f-cd5a-4a46-95c5-c575345a99bc}, ! Handle
  Office Activity Summer Design Day,      ! Name
  {4c72edb1-b275-4e8b-bb64-017d7be3d1e8}, ! Schedule Type Limits Name
  ,                                       ! Interpolate to Timestep
  24,                                     !- Hour 1
  0,                                      !- Minute 1
  132;                                    !- Value Until Time 1

OS:Schedule:Day,
  {bfac7a54-e3e9-4eac-a7c9-29f0a42c7dae}, ! Handle
  Office Activity Winter Design Day,      ! Name
  {4c72edb1-b275-4e8b-bb64-017d7be3d1e8}, ! Schedule Type Limits Name
  ,                                       ! Interpolate to Timestep
  24,                                     !- Hour 1
  0,                                      !- Minute 1
  132;                                    !- Value Until Time 1

OS:Schedule:Ruleset,
  {e9e4871a-daec-45bb-be23-d2af9128914f}, ! Handle
  Office Bldg Light,                      ! Name
  {dabc32e3-1894-402e-ab29-e0cda3b5df14}, ! Schedule Type Limits Name
  {91b64472-17ed-464d-a923-17e7ec496a6a}, ! Default Day Schedule Name
  {a21ec54f-c9b0-4a3b-97d3-883dcb2aa7d3}, ! Summer Design Day Schedule Name
  {8c1de910-03ef-4a06-838c-dc15809a2d2f}; ! Winter Design Day Schedule Name

OS:Schedule:Day,
  {91b64472-17ed-464d-a923-17e7ec496a6a}, ! Handle
  Office Bldg Light Default Schedule,     ! Name
  {dabc32e3-1894-402e-ab29-e0cda3b5df14}, ! Schedule Type Limits Name
  ,                                       ! Interpolate to Timestep
  5,                                      !- Hour 1
  0,                                      !- Minute 1
  0.05,                                   !- Value Until Time 1
  7,                                      !- Hour 2
  0,                                      !- Minute 2
  0.1,                                    !- Value Until Time 2
  8,                                      !- Hour 3
  0,                                      !- Minute 3
  0.3,                                    !- Value Until Time 3
  17,                                     !- Hour 4
  0,                                      !- Minute 4
  0.9,                                    !- Value Until Time 4
  18,                                     !- Hour 5