
OS:Version,
  {bd67b0cd-23b2-4ea6-89cc-62dd95b10830}, !- Handle
  2.9.0;                                  !- Version Identifier

OS:Site,
  {f981f642-f645-4184-90ea-54ecb81181a3}, !- Handle
  Site 1,                                 !- Name
  ,                                       !- Latitude {deg}
  ,                                       !- Longitude {deg}
  ,                                       !- Time Zone {hr}
  ,                                       !- Elevation {m}
  ;                                       !- Terrain

OS:YearDescription,
  {286d52b4-ac67-4922-b45b-e99be1b2fa25}; !- Handle

OS:ClimateZones,
  {ed807fb1-d8cc-4fe4-81f9-ecc4a3e663b3}, !- Handle
  ,                                       !- Active Institution
  ,                                       !- Active Year
  ,                                       !- Climate Zone Institution Name 1
  ,                                       !- Climate Zone Document Name 1
  ,                                       !- Climate Zone Document Year 1
  ,                                       !- Climate Zone Value 1
  CEC,                                    !- Climate Zone Institution Name 2
  California Climate Zone Descriptions,   !- Climate Zone Document Name 2
  1995,                                   !- Climate Zone Document Year 2
  ;                                       !- Climate Zone Value 2

OS:Facility,
  {5874d766-9013-445a-b7ba-fbc18548d936}; !- Handle

OS:SimulationControl,
  {58c08c90-257a-4c48-bac8-bc48284aa3da}; !- Handle

OS:Sizing:Parameters,
  {b7f8e5e5-194f-46fb-b696-bf8dbd94d2a1}, !- Handle
  1.25,                                   !- Heating Sizing Factor
  1.15;                                   !- Cooling Sizing Factor

OS:Timestep,
  {7d9cdc89-f88b-48bc-a911-5c24839f5e0f}, !- Handle
  4;                                      !- Number of Timesteps per Hour

OS:ShadowCalculation,
  {4b4398c9-7698-4d5a-8651-280bd02def9b}, !- Handle
  20,                                     !- Calculation Frequency
  15000;                                  !- Maximum Figures in Shadow Overlap Calculations

OS:HeatBalanceAlgorithm,
  {f1ec6801-7d3f-453f-82f7-4587187226a7}, !- Handle
  ConductionTransferFunction,             !- Algorithm
  200;                                    !- Surface Temperature Upper Limit {C}

OS:RunPeriod,
  {61a69a03-a8f4-4d0f-85db-6c628a82e2d2}, !- Handle
  Run Period 1,                           !- Name
  1,                                      !- Begin Month
  1,                                      !- Begin Day of Month
  12,                                     !- End Month
  31,                                     !- End Day of Month
  ,                                       !- Use Weather File Holidays and Special Days
  ,                                       !- Use Weather File Daylight Saving Period
  ,                                       !- Apply Weekend Holiday Rule
  ,                                       !- Use Weather File Rain Indicators
  ,                                       !- Use Weather File Snow Indicators
  ;                                       !- Number of Times Runperiod to be Repeated

OS:LifeCycleCost:Parameters,
  {4156312f-45ac-41e1-8bda-ebb07868e9db}, !- Handle
  ,                                       !- Analysis Type
  ,                                       !- Discounting Convention
  ,                                       !- Inflation Approach
  ,                                       !- Real Discount Rate
  ,                                       !- Nominal Discount Rate
  ,                                       !- Inflation
  ,                                       !- Base Date Month
  ,                                       !- Base Date Year
  ,                                       !- Service Date Month
  ,                                       !- Service Date Year
  ;                                       !- Length of Study Period in Years

OS:RadianceParameters,
  {8262416c-3366-49be-b850-c8bf2a2e2f67}, !- Handle
  1,                                      !- Accumulated Rays per Record
  0,                                      !- Direct Threshold
  1,                                      !- Direct Certainty
  1,                                      !- Direct Jitter
  1,                                      !- Direct Pretest
  6,                                      !- Ambient Bounces VMX
  2,                                      !- Ambient Bounces DMX
  4050,                                   !- Ambient Divisions VMX
  512,                                    !- Ambient Divisions DMX
  256,                                    !- Ambient Supersamples
  0.001,                                  !- Limit Weight VMX
  0.001,                                  !- Limit Weight DMX
  500,                                    !- Klems Sampling Density
  146;                                    !- Sky Discretization Resolution

OS:ProgramControl,
  {6d15cd07-035c-45d0-a623-671450c718a3}; !- Handle

OS:OutputControl:ReportingTolerances,
  {91c73e89-784b-4867-bb28-b609a56b8e48}, !- Handle
  1,                                      !- Tolerance for Time Heating Setpoint Not Met {deltaC}
  1;                                      !- Tolerance for Time Cooling Setpoint Not Met {deltaC}

OS:ConvergenceLimits,
  {cb6bfab2-74c1-4485-b99c-995538d2528f}, !- Handle
  1;                                      !- Minimum System Timestep {minutes}

OS:SurfaceConvectionAlgorithm:Inside,
  {11ad18dd-d471-48ef-88d9-46efb5216de6}, !- Handle
  TARP;                                   !- Algorithm

OS:SurfaceConvectionAlgorithm:Outside,
  {0c1f02f4-28af-46a7-ac53-41fe3fc66141}, !- Handle
  DOE-2;                                  !- Algorithm

OS:ZoneAirHeatBalanceAlgorithm,
  {fa5733e2-b532-4919-a72b-426a91d73b12}, !- Handle
  ThirdOrderBackwardDifference;           !- Algorithm

OS:ZoneAirContaminantBalance,
  {51670a9b-9ae9-42fe-8f9f-02eb7c714cb1}; !- Handle

OS:ZoneCapacitanceMultiplier:ResearchSpecial,
  {c4dc60a1-e8fc-4026-b715-51487c3784e6}, !- Handle
  ,                                       !- Temperature Capacity Multiplier
  ,                                       !- Humidity Capacity Multiplier
  ;                                       !- Carbon Dioxide Capacity Multiplier

OS:SpaceType,
  {f5b1e8e4-bd23-4898-87ca-cf4ab1bb0c25}, !- Handle
  PrimarySchool Cafeteria,                !- Name
  ,                                       !- Default Construction Set Name
  ,                                       !- Default Schedule Set Name
  {33318c3a-9624-49df-a33c-b3d583f01cb3}, !- Group Rendering Name
  ,                                       !- Design Specification Outdoor Air Object Name
  ,                                       !- Standards Template
  PrimarySchool,                          !- Standards Building Type
  Cafeteria;                              !- Standards Space Type

OS:SpaceType,
  {14329644-9e8e-40d9-8b33-fc0dd29b7ff6}, !- Handle
  PrimarySchool Classroom,                !- Name
  ,                                       !- Default Construction Set Name
  ,                                       !- Default Schedule Set Name
  {65401a83-dbe8-47da-a0c1-af58d21a89bc}, !- Group Rendering Name
  ,                                       !- Design Specification Outdoor Air Object Name
  ,                                       !- Standards Template
  PrimarySchool,                          !- Standards Building Type
  Classroom;                              !- Standards Space Type

OS:SpaceType,
  {56c4dd2e-6cdb-40a8-a3ae-1e1699281ce0}, !- Handle
  PrimarySchool Corridor,                 !- Name
  ,                                       !- Default Construction Set Name
  ,                                       !- Default Schedule Set Name
  {407ea4a2-503f-4f73-b881-20e3bd700964}, !- Group Rendering Name
  ,                                       !- Design Specification Outdoor Air Object Name
  ,                                       !- Standards Template
  PrimarySchool,                          !- Standards Building Type
  Corridor;                               !- Standards Space Type

OS:SpaceType,
  {23d5e207-9e0b-4a20-84b3-d4660dc07a1d}, !- Handle
  PrimarySchool Gym,                      !- Name
  ,                                       !- Default Construction Set Name
  ,                                       !- Default Schedule Set Name
  {4e16add4-5cc7-431a-ab58-faf1ab002382}, !- Group Rendering Name
  ,                                       !- Design Specification Outdoor Air Object Name
  ,                                       !- Standards Template
  PrimarySchool,                          !- Standards Building Type
  Gym;                                    !- Standards Space Type

OS:SpaceType,
  {abb571af-1efe-4e63-90a4-38c46849e1ae}, !- Handle
  PrimarySchool Kitchen,                  !- Name
  ,                                       !- Default Construction Set Name
  ,                                       !- Default Schedule Set Name
  {5984679b-cc67-43fc-9a1f-e180fa78e6eb}, !- Group Rendering Name
  ,                                       !- Design Specification Outdoor Air Object Name
  ,                                       !- Standards Template
  PrimarySchool,                          !- Standards Building Type
  Kitchen;                                !- Standards Space Type

OS:SpaceType,
  {9356696a-3998-431e-b68f-4ec698842c0d}, !- Handle
  PrimarySchool Library,                  !- Name
  ,                                       !- Default Construction Set Name
  ,                                       !- Default Schedule Set Name
  {95c9009f-518b-47a4-a943-9dee7979801a}, !- Group Rendering Name
  ,                                       !- Design Specification Outdoor Air Object Name
  ,                                       !- Standards Template
  PrimarySchool,                          !- Standards Building Type
  Library;                                !- Standards Space Type

OS:SpaceType,
  {18d5b47b-dbfe-42ec-aa34-8c799103cf6e}, !- Handle
  PrimarySchool Lobby,                    !- Name
  ,                                       !- Default Construction Set Name
  ,                                       !- Default Schedule Set Name
  {feef6a64-90ed-42de-8d5b-e5f2df7576ac}, !- Group Rendering Name
  ,                                       !- Design Specification Outdoor Air Object Name
  ,                                       !- Standards Template
  PrimarySchool,                          !- Standards Building Type
  Lobby;                                  !- Standards Space Type

OS:SpaceType,
  {ac7a7435-4526-460a-814c-14b91bfa7a09}, !- Handle
  PrimarySchool Mechanical,               !- Name
  ,                                       !- Default Construction Set Name
  ,                                       !- Default Schedule Set Name
  {4a61ac99-18b8-4ece-8d68-41681cfb7309}, !- Group Rendering Name
  ,                                       !- Design Specification Outdoor Air Object Name
  ,                                       !- Standards Template
  PrimarySchool,                          !- Standards Building Type
  Mechanical;                             !- Standards Space Type

OS:SpaceType,
  {98c68f71-bd01-4410-a0b1-54f17d240ee8}, !- Handle
  PrimarySchool Office,                   !- Name
  ,                                       !- Default Construction Set Name
  ,                                       !- Default Schedule Set Name
  {7f00a337-2f3b-484f-a8c5-04d30f80699e}, !- Group Rendering Name
  ,                                       !- Design Specification Outdoor Air Object Name
  ,                                       !- Standards Template
  PrimarySchool,                          !- Standards Building Type
  Office;                                 !- Standards Space Type

OS:SpaceType,
  {2f3c1558-08a8-4fc4-acf8-fcd26d3f4d7e}, !- Handle
  PrimarySchool Restroom,                 !- Name
  ,                                       !- Default Construction Set Name
  ,                                       !- Default Schedule Set Name
  {7cc4626d-03f4-422e-a628-0ab026604f58}, !- Group Rendering Name
  ,                                       !- Design Specification Outdoor Air Object Name
  ,                                       !- Standards Template
  PrimarySchool,                          !- Standards Building Type
  Restroom;                               !- Standards Space Type

OS:Building,
  {f96645e8-ee24-4a93-a84a-389b8223a63e}, !- Handle
  90.1-2004|PrimarySchool,                !- Name
  ,                                       !- Building Sector Type
  ,                                       !- North Axis {deg}
  ,                                       !- Nominal Floor to Floor Height {m}
  ,                                       !- Space Type Name
  ,                                       !- Default Construction Set Name
  ;                                       !- Default Schedule Set Name

OS:BuildingStory,
  {68153e53-cd9e-42e0-8572-46fbd694e480}, !- Handle
  Story Ground,                           !- Name
  0,                                      !- Nominal Z Coordinate {m}
  3.9624,                                 !- Nominal Floor to Floor Height {m}
  ,                                       !- Default Construction Set Name
  ,                                       !- Default Schedule Set Name
  {34997d7e-6984-46c1-8984-2161d5f024e3}; !- Group Rendering Name

OS:Space,
  {e8c64ebf-b181-465c-a480-7e2f47c4b3f4}, !- Handle
  PrimarySchool Corridor A end_a - Story Ground, !- Name
  {56c4dd2e-6cdb-40a8-a3ae-1e1699281ce0}, !- Space Type Name
  ,                                       !- Default Construction Set Name
  ,                                       !- Default Schedule Set Name
  -0,                                     !- Direction of Relative North {deg}
  -41.7364588818937,                      !- X Origin {m}
  -20.8682294409468,                      !- Y Origin {m}
  0,                                      !- Z Origin {m}
  {68153e53-cd9e-42e0-8572-46fbd694e480}, !- Building Story Name
  {46b719a8-329b-4257-bf89-d761f9219870}; !- Thermal Zone Name

OS:Surface,
  {17bfb5f3-f83f-4240-9e4c-96d849e4d869}, !- Handle
  Surface 1,                              !- Name
  Floor,                                  !- Surface Type
  ,                                       !- Construction Name
  {e8c64ebf-b181-465c-a480-7e2f47c4b3f4}, !- Space Name
  Ground,                                 !- Outside Boundary Condition
  ,                                       !- Outside Boundary Condition Object
  NoSun,                                  !- Sun Exposure
  NoWind,                                 !- Wind Exposure
  ,                                       !- View Factor to Ground
  ,                                       !- Number of Vertices
  -4.2632564145606e-14, 3.19744231092045e-14, 0, !- X,Y,Z Vertex 1 {m}
  -4.2632564145606e-14, 4.57200000000003, 0, !- X,Y,Z Vertex 2 {m}
  4.57199999999995, 4.57200000000003, 0,  !- X,Y,Z Vertex 3 {m}
  4.57199999999995, 3.19744231092045e-14, 0; !- X,Y,Z Vertex 4 {m}

OS:Surface,
  {3ad4ed8c-594a-4a34-bbb9-e3eab77fbbc2}, !- Handle
  Surface 2,                              !- Name
  Wall,                                   !- Surface Type
  ,                                       !- Construction Name
  {e8c64ebf-b181-465c-a480-7e2f47c4b3f4}, !- Space Name
  Outdoors,                               !- Outside Boundary Condition
  ,                                       !- Outside Boundary Condition Object
  SunExposed,                             !- Sun Exposure
  WindExposed,                            !- Wind Exposure
  ,                                       !- View Factor to Ground
  ,                                       !- Number of Vertices
  -4.2632564145606e-14, 4.57200000000003, 3.9624, !- X,Y,Z Vertex 1 {m}
  -4.2632564145606e-14, 4.57200000000003, 0, !- X,Y,Z Vertex 2 {m}
  -4.2632564145606e-14, 3.19744231092045e-14, 0, !- X,Y,Z Vertex 3 {m}
  -4.2632564145606e-14, 3.19744231092045e-14, 3.9624; !- X,Y,Z Vertex 4 {m}

OS:Surface,
  {4d88bc79-8a41-41db-83c0-9c668beab205}, !- Handle
  Surface 3,                              !- Name
  Wall,                                   !- Surface Type
  ,                                       !- Construction Name
  {e8c64ebf-b181-465c-a480-7e2f47c4b3f4}, !- Space Name
  Surface,                                !- Outside Boundary Condition
  {278bc73b-bd4e-424f-baa0-d3592a62babb}, !- Outside Boundary Condition Object
  NoSun,                                  !- Sun Exposure
  NoWind,                                 !- Wind Exposure
  ,                                       !- View Factor to Ground
  ,                                       !- Number of Vertices
  4.57199999999995, 4.57200000000003, 3.9624, !- X,Y,Z Vertex 1 {m}
  4.57199999999995, 4.57200000000003, 0,  !- X,Y,Z Vertex 2 {m}
  -4.2632564145606e-14, 4.57200000000003, 0, !- X,Y,Z Vertex 3 {m}
  -4.2632564145606e-14, 4.57200000000003, 3.9624; !- X,Y,Z Vertex 4 {m}

OS:Surface,
  {3d1a3e5a-758e-4d6e-8ac5-1bcd2d45e431}, !- Handle
  Surface 4,                              !- Name
  Wall,                                   !- Surface Type
  ,                                       !- Construction Name
  {e8c64ebf-b181-465c-a480-7e2f47c4b3f4}, !- Space Name
  Surface,                                !- Outside Boundary Condition
  {06fea6ec-0520-4796-a28f-ca8ed938a219}, !- Outside Boundary Condition Object
  NoSun,                                  !- Sun Exposure
  NoWind,                                 !- Wind Exposure
  ,                                       !- View Factor to Ground
  ,                                       !- Number of Vertices
  4.57199999999995, 3.19744231092045e-14, 3.9624, !- X,Y,Z Vertex 1 {m}
  4.57199999999995, 3.19744231092045e-14, 0, !- X,Y,Z Vertex 2 {m}
  4.57199999999995, 4.57200000000003, 0,  !- X,Y,Z Vertex 3 {m}
  4.57199999999995, 4.57200000000003, 3.9624; !- X,Y,Z Vertex 4 {m}

OS:Surface,
  {1a825928-ce7b-4959-a214-daaf1809db11}, !- Handle
  Surface 5,                              !- Name
  Wall,                                   !- Surface Type
  ,                                       !- Construction Name
  {e8c64ebf-b181-465c-a480-7e2f47c4b3f4}, !- Space Name
  Outdoors,                               !- Outside Boundary Condition
  ,                                       !- Outside Boundary Condition Object
  SunExposed,                             !- Sun Exposure
  WindExposed,                            !- Wind Exposure
  ,                                       !- View Factor to Ground
  ,                                       !- Number of Vertices
  -4.2632564145606e-14, 3.19744231092045e-14, 3.9624, !- X,Y,Z Vertex 1 {m}
  -4.2632564145606e-14, 3.19744231092045e-14, 0, !- X,Y,Z Vertex 2 {m}
  4.57199999999995, 3.19744231092045e-14, 0, !- X,Y,Z Vertex 3 {m}
  4.57199999999995, 3.19744231092045e-14, 3.9624; !- X,Y,Z Vertex 4 {m}

OS:Surface,
  {9975fd8a-5ff9-4a27-bf0a-2187418997e8}, !- Handle
  Surface 6,                              !- Name
  RoofCeiling,                            !- Surface Type
  ,                                       !- Construction Name
  {e8c64ebf-b181-465c-a480-7e2f47c4b3f4}, !- Space Name
  Surface,                                !- Outside Boundary Condition
  {2a466930-e663-4f3d-a4a7-30cdd1c59777}, !- Outside Boundary Condition Object
  NoSun,                                  !- Sun Exposure
  NoWind,                                 !- Wind Exposure
  ,                                       !- View Factor to Ground
  ,                                       !- Number of Vertices
  4.57199999999995, 3.19744231092045e-14, 3.9624, !- X,Y,Z Vertex 1 {m}
  4.57199999999995, 4.57200000000003, 3.9624, !- X,Y,Z Vertex 2 {m}
  -4.2632564145606e-14, 4.57200000000003, 3.9624, !- X,Y,Z Vertex 3 {m}
  -4.2632564145606e-14, 3.19744231092045e-14, 3.9624; !- X,Y,Z Vertex 4 {m}

OS:ThermalZone,
  {46b719a8-329b-4257-bf89-d761f9219870}, !- Handle
  Zone PrimarySchool Corridor A end_a - Story Ground, !- Name
  1,                                      !- Multiplier
  ,                                       !- Ceiling Height {m}
  ,                                       !- Volume {m3}
  ,                                       !- Floor Area {m2}
  ,                                       !- Zone Inside Convection Algorithm
  ,                                       !- Zone Outside Convection Algorithm
  ,                                       !- Zone Conditioning Equipment List Name
  {3da1a05b-e0ff-41ff-a7c5-51eb3c9b2e59}, !- Zone Air Inlet Port List
  {cf2a7232-a151-4ddf-b4d3-895b6fc13bb8}, !- Zone Air Exhaust Port List
  {62873271-368f-41b6-9eac-921267231055}, !- Zone Air Node Name
  {2938add0-e639-4830-b106-b6c724294fd2}, !- Zone Return Air Port List
  ,                                       !- Primary Daylighting Control Name
  ,                                       !- Fraction of Zone Controlled by Primary Daylighting Control
  ,                                       !- Secondary Daylighting Control Name
  ,                                       !- Fraction of Zone Controlled by Secondary Daylighting Control
  ,                                       !- Illuminance Map Name
  {36e97762-6d00-4167-94cd-b182282ead24}, !- Group Rendering Name
  ,                                       !- Thermostat Name
  No;                                     !- Use Ideal Air Loads

OS:Node,
  {a696dc21-6f03-41d7-96cb-320cb6a4c78e}, !- Handle
  Node 1,                                 !- Name
  {62873271-368f-41b6-9eac-921267231055}, !- Inlet Port
  ;                                       !- Outlet Port

OS:Connection,
  {62873271-368f-41b6-9eac-921267231055}, !- Handle
  {f5b10467-e241-4f6c-bfe2-4a54a88d020b}, !- Name
  {46b719a8-329b-4257-bf89-d761f9219870}, !- Source Object
  11,                                     !- Outlet Port
  {a696dc21-6f03-41d7-96cb-320cb6a4c78e}, !- Target Object
  2;                                      !- Inlet Port

OS:PortList,
  {3da1a05b-e0ff-41ff-a7c5-51eb3c9b2e59}, !- Handle
  {8fdca077-f421-4f54-941c-548dc2e31411}, !- Name
  {46b719a8-329b-4257-bf89-d761f9219870}; !- HVAC Component

OS:PortList,
  {cf2a7232-a151-4ddf-b4d3-895b6fc13bb8}, !- Handle
  {4b134af3-654c-4ab5-b63b-28d63ddc7d99}, !- Name
  {46b719a8-329b-4257-bf89-d761f9219870}; !- HVAC Component

OS:PortList,
  {2938add0-e639-4830-b106-b6c724294fd2}, !- Handle
  {624fb89e-99e4-4d54-a45c-435115851b65}, !- Name
  {46b719a8-329b-4257-bf89-d761f9219870}; !- HVAC Component

OS:Sizing:Zone,
  {421145a4-0177-4ae2-8f6c-c5dca64b8e1b}, !- Handle
  {46b719a8-329b-4257-bf89-d761f9219870}, !- Zone or ZoneList Name
  SupplyAirTemperature,                   !- Zone Cooling Design Supply Air Temperature Input Method
  14,                                     !- Zone Cooling Design Supply Air Temperature {C}
  11.11,                                  !- Zone Cooling Design Supply Air Temperature Difference {deltaC}
  SupplyAirTemperature,                   !- Zone Heating Design Supply Air Temperature Input Method
  40,                                     !- Zone Heating Design Supply Air Temperature {C}
  11.11,                                  !- Zone Heating Design Supply Air Temperature Difference {deltaC}
  0.0085,                                 !- Zone Cooling Design Supply Air Humidity Ratio {kg-H2O/kg-air}
  0.008,                                  !- Zone Heating Design Supply Air Humidity Ratio {kg-H2O/kg-air}
  ,                                       !- Zone Heating Sizing Factor
  ,                                       !- Zone Cooling Sizing Factor
  DesignDay,                              !- Cooling Design Air Flow Method
  ,                                       !- Cooling Design Air Flow Rate {m3/s}
  ,                                       !- Cooling Minimum Air Flow per Zone Floor Area {m3/s-m2}
  ,                                       !- Cooling Minimum Air Flow {m3/s}
  ,                                       !- Cooling Minimum Air Flow Fraction
  DesignDay,                              !- Heating Design Air Flow Method
  ,                                       !- Heating Design Air Flow Rate {m3/s}
  ,                                       !- Heating Maximum Air Flow per Zone Floor Area {m3/s-m2}
  ,                                       !- Heating Maximum Air Flow {m3/s}
  ,                                       !- Heating Maximum Air Flow Fraction
  ,                                       !- Design Zone Air Distribution Effectiveness in Cooling Mode
  ,                                       !- Design Zone Air Distribution Effectiveness in Heating Mode
  No,                                     !- Account for Dedicated Outdoor Air System
  NeutralSupplyAir,                       !- Dedicated Outdoor Air System Control Strategy
  autosize,                               !- Dedicated Outdoor Air Low Setpoint Temperature for Design {C}
  autosize;                               !- Dedicated Outdoor Air High Setpoint Temperature for Design {C}

OS:ZoneHVAC:EquipmentList,
  {62cf7c4c-3640-46ac-86c9-9dc52d06d869}, !- Handle
  Zone HVAC Equipment List 1,             !- Name
  {46b719a8-329b-4257-bf89-d761f9219870}; !- Thermal Zone

OS:Space,
  {a96a17ca-90ff-4e11-b4a3-c85ad9dbf00d}, !- Handle
  PrimarySchool Corridor B end_a - Story Ground, !- Name
  {56c4dd2e-6cdb-40a8-a3ae-1e1699281ce0}, !- Space Type Name
  ,                                       !- Default Construction Set Name
  ,                                       !- Default Schedule Set Name
  -0,                                     !- Direction of Relative North {deg}
  -41.7364588818937,                      !- X Origin {m}
  -16.2962294409468,                      !- Y Origin {m}
  0,                                      !- Z Origin {m}
  {68153e53-cd9e-42e0-8572-46fbd694e480}, !- Building Story Name
  {006be185-64da-4b19-811d-b3170290c40d}; !- Thermal Zone Name

OS:Surface,
  {8f52639b-3dc9-4513-8b15-f5729f3781cb}, !- Handle
  Surface 7,                              !- Name
  Floor,                                  !- Surface Type
  ,                                       !- Construction Name
  {a96a17ca-90ff-4e11-b4a3-c85ad9dbf00d}, !- Space Name
  Ground,                                 !- Outside Boundary Condition
  ,                                       !- Outside Boundary Condition Object
  NoSun,                                  !- Sun Exposure
  NoWind,                                 !- Wind Exposure
  ,                                       !- View Factor to Ground
  ,                                       !- Number of Vertices
  -4.2632564145606e-14, 3.19744231092045e-14, 0, !- X,Y,Z Vertex 1 {m}
  -4.2632564145606e-14, 32.5924588818936, 0, !- X,Y,Z Vertex 2 {m}
  4.57199999999995, 32.5924588818936, 0,  !- X,Y,Z Vertex 3 {m}
  4.57199999999995, 3.19744231092045e-14, 0; !- X,Y,Z Vertex 4 {m}

OS:Surface,
  {be3715c5-efe5-4b4e-b9ff-b8911996bf69}, !- Handle
  Surface 8,                              !- Name
  Wall,                                   !- Surface Type
  ,                                       !- Construction Name
  {a96a17ca-90ff-4e11-b4a3-c85ad9dbf00d}, !- Space Name
  Outdoors,                               !- Outside Boundary Condition
  ,                                       !- Outside Boundary Condition Object
  SunExposed,                             !- Sun Exposure
  WindExposed,                            !- Wind Exposure
  ,                                       !- View Factor to Ground
  ,                                       !- Number of Vertices
  -4.2632564145606e-14, 32.5924588818936, 3.9624, !- X,Y,Z Vertex 1 {m}
  -4.2632564145606e-14, 32.5924588818936, 0, !- X,Y,Z Vertex 2 {m}
  -4.2632564145606e-14, 3.19744231092045e-14, 0, !- X,Y,Z Vertex 3 {m}
  -4.2632564145606e-14, 3.19744231092045e-14, 3.9624; !- X,Y,Z Vertex 4 {m}

OS:Surface,
  {b308a1db-914c-4974-a26a-71dd238d5337}, !- Handle
  Surface 9,                              !- Name
  Wall,                                   !- Surface Type
  ,                                       !- Construction Name
  {a96a17ca-90ff-4e11-b4a3-c85ad9dbf00d}, !- Space Name
  Surface,                                !- Outside Boundary Condition
  {787277de-36da-4d5f-8d5c-256cc6d9f9ff}, !- Outside Boundary Condition Object
  NoSun,                                  !- Sun Exposure
  NoWind,                                 !- Wind Exposure
  ,                                       !- View Factor to Ground
  ,                                       !- Number of Vertices
  4.57199999999995, 32.5924588818936, 3.9624, !- X,Y,Z Vertex 1 {m}
  4.57199999999995, 32.5924588818936, 0,  !- X,Y,Z Vertex 2 {m}
  -4.2632564145606e-14, 32.5924588818936, 0, !- X,Y,Z Vertex 3 {m}
  -4.2632564145606e-14, 32.5924588818936, 3.9624; !- X,Y,Z Vertex 4 {m}

OS:Surface,
  {6fed8596-1b3b-4b19-93f2-a7fedce56c7f}, !- Handle
  Surface 10,                             !- Name
  Wall,                                   !- Surface Type
  ,                                       !- Construction Name
  {a96a17ca-90ff-4e11-b4a3-c85ad9dbf00d}, !- Space Name
  Surface,                                !- Outside Boundary Condition
  {bb8d719e-f845-40fe-87c1-7f48cfa77622}, !- Outside Boundary Condition Object
  NoSun,                                  !- Sun Exposure
  NoWind,                                 !- Wind Exposure
  ,                                       !- View Factor to Ground
  ,                                       !- Number of Vertices
  4.57199999999995, 3.19744231092045e-14, 3.9624, !- X,Y,Z Vertex 1 {m}
  4.57199999999995, 3.19744231092045e-14, 0, !- X,Y,Z Vertex 2 {m}
  4.57199999999995, 32.5924588818936, 0,  !- X,Y,Z Vertex 3 {m}
  4.57199999999995, 32.5924588818936, 3.9624; !- X,Y,Z Vertex 4 {m}

OS:Surface,
  {278bc73b-bd4e-424f-baa0-d3592a62babb}, !- Handle