
OS:Version,
  {b8073779-931e-4096-ab49-c0938b42b258}, !- Handle
  3.0.0;                                  !- Version Identifier

OS:Schedule:Constant,
  {1b413c48-d430-4e21-8ca3-3b00c03a19e9}, !- Handle
  Always On Discrete,                     !- Name
  {ca824d85-5deb-449b-9208-95664f8848c4}, !- Schedule Type Limits Name
  1;                                      !- Value

OS:ScheduleTypeLimits,
  {ca824d85-5deb-449b-9208-95664f8848c4}, !- Handle
  Always On Discrete Limits,              !- Name
  0,                                      !- Lower Limit Value
  1,                                      !- Upper Limit Value
  Discrete,                               !- Numeric Type
  Availability;                           !- Unit Type

OS:Site,
  {ca08db06-d548-4557-aaf5-dc592b83df69}, !- Handle
  Atlanta Hartsfield Intl Ap_GA_USA,      !- Name
  33.63,                                  !- Latitude {deg}
  -84.43,                                 !- Longitude {deg}
  -5,                                     !- Time Zone {hr}
  308,                                    !- Elevation {m}
  City;                                   !- Terrain

OS:Timestep,
  {ac918683-6573-4e16-87ef-384e0357016a}, !- Handle
  6;                                      !- Number of Timesteps per Hour

OS:Building,
  {cb5d68ec-316b-4480-b3c4-9439eb4df85c}, !- Handle
  Retail_100k_Baseline,                   !- Name
  ,                                       !- Building Sector Type
  0,                                      !- North Axis {deg}
  ,                                       !- Nominal Floor to Floor Height {m}
  ,                                       !- Space Type Name
  {f89e313c-a222-4f3f-b07e-96ef662d4ae5}, !- Default Construction Set Name
  ,                                       !- Default Schedule Set Name
  ,                                       !- Standards Number of Stories
  ,                                       !- Standards Number of Above Ground Stories
  ,                                       !- Standards Template
  Retail,                                 !- Standards Building Type
  ,                                       !- Standards Number of Living Units
  ,                                       !- Relocatable
  ;                                       !- Nominal Floor to Ceiling Height {m}

OS:SimulationControl,
  {210a88bc-4dc5-4b30-97b0-443caf4d34cd}, !- Handle
  ,                                       !- Do Zone Sizing Calculation
  ,                                       !- Do System Sizing Calculation
  ,                                       !- Do Plant Sizing Calculation
  No,                                     !- Run Simulation for Sizing Periods
  Yes,                                    !- Run Simulation for Weather File Run Periods
  0.04,                                   !- Loads Convergence Tolerance Value {W}
  0.2,                                    !- Temperature Convergence Tolerance Value {deltaC}
  FullExterior,                           !- Solar Distribution
  25;                                     !- Maximum Number of Warmup Days

OS:ThermalZone,
  {3ffd18fa-4de6-4f3d-b8bd-1a03dde66fa7}, !- Handle
  Office Thermal Zone,                    !- Name
  1,                                      !- Multiplier
  ,                                       !- Ceiling Height {m}
  654.1192,                               !- Volume {m3}
  ,                                       !- Floor Area {m2}
  ,                                       !- Zone Inside Convection Algorithm
  ,                                       !- Zone Outside Convection Algorithm
  ,                                       !- Zone Conditioning Equipment List Name
  {99c46c08-fb13-46c3-8314-55754c7ab056}, !- Zone Air Inlet Port List
  {3e3ef858-964c-4cdd-ac19-90b9f0cc9d1c}, !- Zone Air Exhaust Port List
  {ef3f21a4-15e6-4598-9c9c-2d4bea8a0f3d}, !- Zone Air Node Name
  {31ac1b4f-4dd5-4193-965e-eee923312559}, !- Zone Return Air Port List
  ,                                       !- Primary Daylighting Control Name
  ,                                       !- Fraction of Zone Controlled by Primary Daylighting Control
  ,                                       !- Secondary Daylighting Control Name
  ,                                       !- Fraction of Zone Controlled by Secondary Daylighting Control
  ,                                       !- Illuminance Map Name
  {80291d4b-26e7-4443-9065-0c8498d118a5}, !- Group Rendering Name
  {b2a7e47c-d45e-450b-b7ed-f40f54b96f44}, !- Thermostat Name
  No;                                     !- Use Ideal Air Loads

OS:Node,
  {bad16757-1cf1-47a4-895d-3203d5f30b48}, !- Handle
  Office Thermal Zone Zone Air Node,      !- Name
  {ef3f21a4-15e6-4598-9c9c-2d4bea8a0f3d}, !- Inlet Port
  ;                                       !- Outlet Port

OS:Connection,
  {ef3f21a4-15e6-4598-9c9c-2d4bea8a0f3d}, !- Handle
  {3b48602f-0c78-4da7-8137-d52f0495f196}, !- Name
  {3ffd18fa-4de6-4f3d-b8bd-1a03dde66fa7}, !- Source Object
  11,                                     !- Outlet Port
  {bad16757-1cf1-47a4-895d-3203d5f30b48}, !- Target Object
  2;                                      !- Inlet Port

OS:PortList,
  {99c46c08-fb13-46c3-8314-55754c7ab056}, !- Handle
  {499a81e0-47ff-42a4-a1dc-2d7725e88445}, !- Name
  {3ffd18fa-4de6-4f3d-b8bd-1a03dde66fa7}, !- HVAC Component
  {24521dd5-303d-44ef-989f-fa247886fb5e}, !- Port 1
  {51d1cc2a-b40d-494c-a81b-b06e723ef530}; !- Port 2

OS:PortList,
  {3e3ef858-964c-4cdd-ac19-90b9f0cc9d1c}, !- Handle
  {13801d68-3954-466d-962f-a047d6bc7a18}, !- Name
  {3ffd18fa-4de6-4f3d-b8bd-1a03dde66fa7}, !- HVAC Component
  {4c84cd1b-cf60-4ec5-b10c-6b1236931f77}; !- Port 1

OS:PortList,
  {31ac1b4f-4dd5-4193-965e-eee923312559}, !- Handle
  {9173d952-5287-4df9-be0e-92e2b698296c}, !- Name
  {3ffd18fa-4de6-4f3d-b8bd-1a03dde66fa7}, !- HVAC Component
  {419b4b2b-edcf-44b3-95e8-2c73c3a188ef}; !- Port 1

OS:Sizing:Zone,
  {8f5a915d-e53a-4cc0-a69f-4ef494db32e8}, !- Handle
  {3ffd18fa-4de6-4f3d-b8bd-1a03dde66fa7}, !- Zone or ZoneList Name
  SupplyAirTemperature,                   !- Zone Cooling Design Supply Air Temperature Input Method
  12.7777777777778,                       !- Zone Cooling Design Supply Air Temperature {C}
  11.11,                                  !- Zone Cooling Design Supply Air Temperature Difference {deltaC}
  SupplyAirTemperature,                   !- Zone Heating Design Supply Air Temperature Input Method
  40.0000000000001,                       !- Zone Heating Design Supply Air Temperature {C}
  11.11,                                  !- Zone Heating Design Supply Air Temperature Difference {deltaC}
  0.0085,                                 !- Zone Cooling Design Supply Air Humidity Ratio {kg-H2O/kg-air}
  0.008,                                  !- Zone Heating Design Supply Air Humidity Ratio {kg-H2O/kg-air}
  ,                                       !- Zone Heating Sizing Factor
  ,                                       !- Zone Cooling Sizing Factor
  DesignDay,                              !- Cooling Design Air Flow Method
  ,                                       !- Cooling Design Air Flow Rate {m3/s}
  ,                                       !- Cooling Minimum Air Flow per Zone Floor Area {m3/s-m2}
  ,                                       !- Cooling Minimum Air Flow {m3/s}
  ,                                       !- Cooling Minimum Air Flow Fraction
  DesignDay,                              !- Heating Design Air Flow Method
  ,                                       !- Heating Design Air Flow Rate {m3/s}
  ,                                       !- Heating Maximum Air Flow per Zone Floor Area {m3/s-m2}
  ,                                       !- Heating Maximum Air Flow {m3/s}
  ,                                       !- Heating Maximum Air Flow Fraction
  Yes,                                    !- Account for Dedicated Outdoor Air System
  NeutralSupplyAir,                       !- Dedicated Outdoor Air System Control Strategy
  15.5555555555556,                       !- Dedicated Outdoor Air Low Setpoint Temperature for Design {C}
  21.1111111111111;                       !- Dedicated Outdoor Air High Setpoint Temperature for Design {C}

OS:ZoneHVAC:EquipmentList,
  {4358c886-d5d1-4046-b9bb-498867e3abb2}, !- Handle
  Office Thermal Zone Zone HVAC Equipment List, !- Name
  {3ffd18fa-4de6-4f3d-b8bd-1a03dde66fa7}, !- Thermal Zone
  ,                                       !- Load Distribution Scheme
  {61890e22-adb9-4c92-8d86-af9048508818}, !- Zone Equipment 1
  1,                                      !- Zone Equipment Cooling Sequence 1
  1,                                      !- Zone Equipment Heating or No-Load Sequence 1
  {75d6bd3f-5468-4612-baea-536c5546230d}, !- Zone Equipment Sequential Cooling Fraction Schedule Name 1
  {ea177d64-b689-4d5f-81d9-7ea658c8650c}, !- Zone Equipment Sequential Heating Fraction Schedule Name 1
  {76605c32-7bea-46db-aeff-edc182aaa2c3}, !- Zone Equipment 2
  2,                                      !- Zone Equipment Cooling Sequence 2
  2,                                      !- Zone Equipment Heating or No-Load Sequence 2
  ,                                       !- Zone Equipment Sequential Cooling Fraction Schedule Name 2
  ;                                       !- Zone Equipment Sequential Heating Fraction Schedule Name 2

OS:Space,
  {ffc27eb6-a9e6-42e5-b8c4-1a11ae1920c5}, !- Handle
  Office,                                 !- Name
  {672ef3f1-56e3-42fa-8c86-5b4343e367dc}, !- Space Type Name
  ,                                       !- Default Construction Set Name
  ,                                       !- Default Schedule Set Name
  0,                                      !- Direction of Relative North {deg}
  6.4008,                                 !- X Origin {m}
  79.248,                                 !- Y Origin {m}
  0,                                      !- Z Origin {m}
  {1e4bb101-8a64-4234-89dd-19d60c07e8e7}, !- Building Story Name
  {3ffd18fa-4de6-4f3d-b8bd-1a03dde66fa7}, !- Thermal Zone Name
  ,                                       !- Part of Total Floor Area
  ,                                       !- Design Specification Outdoor Air Object Name
  ;                                       !- Building Unit Name

OS:Surface,
  {30b0261c-d3ac-46f3-83c4-46d0f2fe1293}, !- Handle
  Office_IntWall_MeetingRoom,             !- Name
  Wall,                                   !- Surface Type
  ,                                       !- Construction Name
  {ffc27eb6-a9e6-42e5-b8c4-1a11ae1920c5}, !- Space Name
  Surface,                                !- Outside Boundary Condition
  {b5f6c034-2ffa-4659-8e74-dee5197536ef}, !- Outside Boundary Condition Object
  NoSun,                                  !- Sun Exposure
  NoWind,                                 !- Wind Exposure
  ,                                       !- View Factor to Ground
  ,                                       !- Number of Vertices
  0, 0, 6.096,                            !- X,Y,Z Vertex 1 {m}
  0, 0, 0,                                !- X,Y,Z Vertex 2 {m}
  0, 16.764, 0,                           !- X,Y,Z Vertex 3 {m}
  0, 16.764, 6.096;                       !- X,Y,Z Vertex 4 {m}

OS:Surface,
  {41e608e4-70f7-40ce-a26f-ab3d1f585194}, !- Handle
  Office_ExtWall_West,                    !- Name
  Wall,                                   !- Surface Type
  ,                                       !- Construction Name
  {ffc27eb6-a9e6-42e5-b8c4-1a11ae1920c5}, !- Space Name
  Outdoors,                               !- Outside Boundary Condition
  ,                                       !- Outside Boundary Condition Object
  SunExposed,                             !- Sun Exposure
  WindExposed,                            !- Wind Exposure
  ,                                       !- View Factor to Ground
  ,                                       !- Number of Vertices
  -6.4008, 16.764, 6.096,                 !- X,Y,Z Vertex 1 {m}
  -6.4008, 16.764, 0,                     !- X,Y,Z Vertex 2 {m}
  -6.4008, 0, 0,                          !- X,Y,Z Vertex 3 {m}
  -6.4008, 0, 6.096;                      !- X,Y,Z Vertex 4 {m}

OS:Surface,
  {cad4b24c-dbd3-4cea-b240-e663d6290f36}, !- Handle
  Office_IntWall_Corridor,                !- Name
  Wall,                                   !- Surface Type
  ,                                       !- Construction Name
  {ffc27eb6-a9e6-42e5-b8c4-1a11ae1920c5}, !- Space Name
  Surface,                                !- Outside Boundary Condition
  {73153053-55a8-486f-9784-dadf53f076af}, !- Outside Boundary Condition Object
  NoSun,                                  !- Sun Exposure
  NoWind,                                 !- Wind Exposure
  ,                                       !- View Factor to Ground
  ,                                       !- Number of Vertices
  -6.4008, 0, 6.096,                      !- X,Y,Z Vertex 1 {m}
  -6.4008, 0, 0,                          !- X,Y,Z Vertex 2 {m}
  0, 0, 0,                                !- X,Y,Z Vertex 3 {m}
  0, 0, 6.096;                            !- X,Y,Z Vertex 4 {m}

OS:Surface,
  {f7c38101-be82-4bc6-90af-58cf0f561eb8}, !- Handle
  Office_Slab,                            !- Name
  Floor,                                  !- Surface Type
  ,                                       !- Construction Name
  {ffc27eb6-a9e6-42e5-b8c4-1a11ae1920c5}, !- Space Name
  Ground,                                 !- Outside Boundary Condition
  ,                                       !- Outside Boundary Condition Object
  NoSun,                                  !- Sun Exposure
  NoWind,                                 !- Wind Exposure
  ,                                       !- View Factor to Ground
  ,                                       !- Number of Vertices
  0, 16.764, 0,                           !- X,Y,Z Vertex 1 {m}
  0, 0, 0,                                !- X,Y,Z Vertex 2 {m}
  -6.4008, 0, 0,                          !- X,Y,Z Vertex 3 {m}
  -6.4008, 16.764, 0;                     !- X,Y,Z Vertex 4 {m}

OS:Surface,
  {612bc4a2-6427-4ebd-9576-37921f047803}, !- Handle
  Office_Roof,                            !- Name
  RoofCeiling,                            !- Surface Type
  ,                                       !- Construction Name
  {ffc27eb6-a9e6-42e5-b8c4-1a11ae1920c5}, !- Space Name
  Outdoors,                               !- Outside Boundary Condition
  ,                                       !- Outside Boundary Condition Object
  SunExposed,                             !- Sun Exposure
  WindExposed,                            !- Wind Exposure
  ,                                       !- View Factor to Ground
  ,                                       !- Number of Vertices
  0, 0, 6.096,                            !- X,Y,Z Vertex 1 {m}
  0, 16.764, 6.096,                       !- X,Y,Z Vertex 2 {m}
  -6.4008, 16.764, 6.096,                 !- X,Y,Z Vertex 3 {m}
  -6.4008, 0, 6.096;                      !- X,Y,Z Vertex 4 {m}

OS:Surface,
  {8323085e-e600-4591-bb4d-cf73b7d99d09}, !- Handle
  Office_ExtWall_North,                   !- Name
  Wall,                                   !- Surface Type
  ,                                       !- Construction Name
  {ffc27eb6-a9e6-42e5-b8c4-1a11ae1920c5}, !- Space Name
  Outdoors,                               !- Outside Boundary Condition
  ,                                       !- Outside Boundary Condition Object
  SunExposed,                             !- Sun Exposure
  WindExposed,                            !- Wind Exposure
  ,                                       !- View Factor to Ground
  ,                                       !- Number of Vertices
  0, 16.764, 6.096,                       !- X,Y,Z Vertex 1 {m}
  0, 16.764, 0,                           !- X,Y,Z Vertex 2 {m}
  -6.4008, 16.764, 0,                     !- X,Y,Z Vertex 3 {m}
  -6.4008, 16.764, 6.096;                 !- X,Y,Z Vertex 4 {m}

OS:ThermalZone,
  {6e5a2dcf-d17b-4608-8a36-eba1349ed5a0}, !- Handle
  BreakRoom Thermal Zone,                 !- Name
  1,                                      !- Multiplier
  ,                                       !- Ceiling Height {m}
  1090.1986,                              !- Volume {m3}
  ,                                       !- Floor Area {m2}
  ,                                       !- Zone Inside Convection Algorithm
  ,                                       !- Zone Outside Convection Algorithm
  ,                                       !- Zone Conditioning Equipment List Name
  {f2939aaa-f2f9-4033-b481-e6ec3c0abee9}, !- Zone Air Inlet Port List
  {f6089965-602a-480f-9a67-bdc1c11470b9}, !- Zone Air Exhaust Port List
  {c20f2e9a-560e-4093-b72e-b29d277fa9f7}, !- Zone Air Node Name
  {759c67f2-5d6c-469d-bc94-e0038606ba04}, !- Zone Return Air Port List
  ,                                       !- Primary Daylighting Control Name
  ,                                       !- Fraction of Zone Controlled by Primary Daylighting Control
  ,                                       !- Secondary Daylighting Control Name
  ,                                       !- Fraction of Zone Controlled by Secondary Daylighting Control
  ,                                       !- Illuminance Map Name
  {9a4d0170-7964-46fb-b362-264c365a4be3}, !- Group Rendering Name
  {c4d2a787-fab2-4b51-bf60-ec3f57a03a22}, !- Thermostat Name
  No;                                     !- Use Ideal Air Loads

OS:Node,
  {58975968-57a6-4b44-9fdf-d70283ae9deb}, !- Handle
  BreakRoom Thermal Zone Zone Air Node,   !- Name
  {c20f2e9a-560e-4093-b72e-b29d277fa9f7}, !- Inlet Port
  ;                                       !- Outlet Port

OS:Connection,
  {c20f2e9a-560e-4093-b72e-b29d277fa9f7}, !- Handle
  {1fc73060-465c-4dbb-ba5c-ee7550f7ef6e}, !- Name
  {6e5a2dcf-d17b-4608-8a36-eba1349ed5a0}, !- Source Object
  11,                                     !- Outlet Port
  {58975968-57a6-4b44-9fdf-d70283ae9deb}, !- Target Object
  2;                                      !- Inlet Port

OS:PortList,
  {f2939aaa-f2f9-4033-b481-e6ec3c0abee9}, !- Handle
  {ef7964b2-702b-46c8-ae62-28dea6f2d6d8}, !- Name
  {6e5a2dcf-d17b-4608-8a36-eba1349ed5a0}, !- HVAC Component
  {37871462-ad75-4683-a29c-d241fc8665a0}, !- Port 1
  {ba10ffa2-202b-457b-b474-223330cc3dee}; !- Port 2

OS:PortList,
  {f6089965-602a-480f-9a67-bdc1c11470b9}, !- Handle
  {a416caa5-9571-446a-8799-6f1af7429ee5}, !- Name
  {6e5a2dcf-d17b-4608-8a36-eba1349ed5a0}, !- HVAC Component
  {0a39b680-02f1-468c-a902-8d82f51a2057}; !- Port 1

OS:PortList,
  {759c67f2-5d6c-469d-bc94-e0038606ba04}, !- Handle
  {57ba3f7b-5701-43b3-a410-3051dd36ca63}, !- Name
  {6e5a2dcf-d17b-4608-8a36-eba1349ed5a0}, !- HVAC Component
  {c8da740c-e691-40de-b3a2-f7173122b4cb}; !- Port 1

OS:Sizing:Zone,
  {acb53f42-19db-4158-b741-270993efd1b9}, !- Handle
  {6e5a2dcf-d17b-4608-8a36-eba1349ed5a0}, !- Zone or ZoneList Name
  SupplyAirTemperature,                   !- Zone Cooling Design Supply Air Temperature Input Method
  12.7777777777778,                       !- Zone Cooling Design Supply Air Temperature {C}
  11.11,                                  !- Zone Cooling Design Supply Air Temperature Difference {deltaC}
  SupplyAirTemperature,                   !- Zone Heating Design Supply Air Temperature Input Method
  40.0000000000001,                       !- Zone Heating Design Supply Air Temperature {C}
  11.11,                                  !- Zone Heating Design Supply Air Temperature Difference {deltaC}
  0.0085,                                 !- Zone Cooling Design Supply Air Humidity Ratio {kg-H2O/kg-air}
  0.008,                                  !- Zone Heating Design Supply Air Humidity Ratio {kg-H2O/kg-air}
  ,                                       !- Zone Heating Sizing Factor
  ,                                       !- Zone Cooling Sizing Factor
  DesignDay,                              !- Cooling Design Air Flow Method
  ,                                       !- Cooling Design Air Flow Rate {m3/s}
  ,                                       !- Cooling Minimum Air Flow per Zone Floor Area {m3/s-m2}
  ,                                       !- Cooling Minimum Air Flow {m3/s}
  ,                                       !- Cooling Minimum Air Flow Fraction
  DesignDay,                              !- Heating Design Air Flow Method
  ,                                       !- Heating Design Air Flow Rate {m3/s}
  ,                                       !- Heating Maximum Air Flow per Zone Floor Area {m3/s-m2}
  ,                                       !- Heating Maximum Air Flow {m3/s}
  ,                                       !- Heating Maximum Air Flow Fraction
  Yes,                                    !- Account for Dedicated Outdoor Air System
  NeutralSupplyAir,                       !- Dedicated Outdoor Air System Control Strategy
  15.5555555555556,                       !- Dedicated Outdoor Air Low Setpoint Temperature for Design {C}
  21.1111111111111;                       !- Dedicated Outdoor Air High Setpoint Temperature for Design {C}

OS:ZoneHVAC:EquipmentList,
  {6ee433e4-0b47-4f4f-9dc4-4ad7b438e9cf}, !- Handle
  BreakRoom Thermal Zone Zone HVAC Equipment List, !- Name
  {6e5a2dcf-d17b-4608-8a36-eba1349ed5a0}, !- Thermal Zone
  ,                                       !- Load Distribution Scheme
  {80d2d809-feeb-44d9-8363-f064c2fd2fc2}, !- Zone Equipment 1
  1,                                      !- Zone Equipment Cooling Sequence 1
  1,                                      !- Zone Equipment Heating or No-Load Sequence 1
  {7153e638-f190-4af5-accf-d5aab785988b}, !- Zone Equipment Sequential Cooling Fraction Schedule Name 1
  {e5d1dfbe-4f22-4022-88cc-c6d423fc73db}, !- Zone Equipment Sequential Heating Fraction Schedule Name 1
  {dd4639e8-42ac-4260-8002-c89ce2a60f20}, !- Zone Equipment 2
  2,                                      !- Zone Equipment Cooling Sequence 2
  2,                                      !- Zone Equipment Heating or No-Load Sequence 2
  ,                                       !- Zone Equipment Sequential Cooling Fraction Schedule Name 2
  ;                                       !- Zone Equipment Sequential Heating Fraction Schedule Name 2

OS:Space,
  {57ea2f41-e87c-4434-8981-325fb45d21e9}, !- Handle
  BreakRoom,                              !- Name
  {505f8174-c7c5-40ab-ac4b-1715ea20c9a7}, !- Space Type Name
  ,                                       !- Default Construction Set Name
  ,                                       !- Default Schedule Set Name
  0,                                      !- Direction of Relative North {deg}
  27.7368,                                !- X Origin {m}
  79.248,                                 !- Y Origin {m}
  0,                                      !- Z Origin {m}
  {1e4bb101-8a64-4234-89dd-19d60c07e8e7}, !- Building Story Name
  {6e5a2dcf-d17b-4608-8a36-eba1349ed5a0}, !- Thermal Zone Name
  ,                                       !- Part of Total Floor Area
  ,                                       !- Design Specification Outdoor Air Object Name
  ;                                       !- Building Unit Name

OS:Surface,
  {31d62b7e-bfbc-4abc-89a4-099dd26942a2}, !- Handle
  BreakRoom_IntWall_Corridor,             !- Name
  Wall,                                   !- Surface Type
  ,                                       !- Construction Name
  {57ea2f41-e87c-4434-8981-325fb45d21e9}, !- Space Name
  Surface,                                !- Outside Boundary Condition
  {0f526b43-2a4b-4eb1-8ac1-95d85e98ac54}, !- Outside Boundary Condition Object
  NoSun,                                  !- Sun Exposure
  NoWind,                                 !- Wind Exposure
  ,                                       !- View Factor to Ground
  ,                                       !- Number of Vertices
  -10.668, 0, 6.096,                      !- X,Y,Z Vertex 1 {m}
  -10.668, 0, 0,                          !- X,Y,Z Vertex 2 {m}
  0, 0, 0,                                !- X,Y,Z Vertex 3 {m}
  0, 0, 6.096;                            !- X,Y,Z Vertex 4 {m}

OS:Surface,
  {e59ab35d-ed1c-470a-8079-64176cf68ac9}, !- Handle
  BreakRoom_Roof,                         !- Name
  RoofCeiling,                            !- Surface Type
  ,                                       !- Construction Name
  {57ea2f41-e87c-4434-8981-325fb45d21e9}, !- Space Name
  Outdoors,                               !- Outside Boundary Condition
  ,                                       !- Outside Boundary Condition Object
  SunExposed,                             !- Sun Exposure
  WindExposed,                            !- Wind Exposure
  ,                                       !- View Factor to Ground
  ,                                       !- Number of Vertices
  0, 0, 6.096,                            !- X,Y,Z Vertex 1 {m}
  0, 16.764, 6.096,                       !- X,Y,Z Vertex 2 {m}
  -10.668, 16.764, 6.096,                 !- X,Y,Z Vertex 3 {m}
  -10.668, 0, 6.096;                      !- X,Y,Z Vertex 4 {m}

OS:Surface,
  {8306d39f-07a6-49b2-a2b6-ba56d93761eb}, !- Handle
  BreakRoom_IntWall_MeetingRoom,          !- Name
  Wall,                                   !- Surface Type
  ,                                       !- Construction Name
  {57ea2f41-e87c-4434-8981-325fb45d21e9}, !- Space Name
  Surface,                                !- Outside Boundary Condition
  {33e0e819-6cd2-4918-ad96-56c74d4da875}, !- Outside Boundary Condition Object
  NoSun,                                  !- Sun Exposure
  NoWind,                                 !- Wind Exposure
  ,                                       !- View Factor to Ground
  ,                                       !- Number of Vertices
  -10.668, 16.764, 6.096,                 !- X,Y,Z Vertex 1 {m}
  -10.668, 16.764, 0,                     !- X,Y,Z Vertex 2 {m}
  -10.668, 0, 0,                          !- X,Y,Z Vertex 3 {m}
  -10.668, 0, 6.096;                      !- X,Y,Z Vertex 4 {m}

OS:Surface,
  {ec36dc4e-9d14-4bef-be16-2c658d6be238}, !- Handle
  BreakRoom_ExtWall_North,                !- Name
  Wall,                                   !- Surface Type
  ,                                       !- Construction Name
  {57ea2f41-e87c-4434-8981-325fb45d21e9}, !- Space Name
  Outdoors,                               !- Outside Boundary Condition
  ,                                       !- Outside Boundary Condition Object
  SunExposed,                             !- Sun Exposure
  WindExposed,                            !- Wind Exposure
  ,                                       !- View Factor to Ground
  ,                                       !- Number of Vertices
  0, 16.764, 6.096,                       !- X,Y,Z Vertex 1 {m}
  0, 16.764, 0,                           !- X,Y,Z Vertex 2 {m}
  -10.668, 16.764, 0,                     !- X,Y,Z Vertex 3 {m}
  -10.668, 16.764, 6.096;                 !- X,Y,Z Vertex 4 {m}

OS:Surface,
  {ebebe5cf-3282-408f-aff4-ef3027fc896f}, !- Handle
  BreakRoom_IntWall_Restroom,             !- Name
  Wall,                                   !- Surface Type
  ,                                       !- Construction Name
  {57ea2f41-e87c-4434-8981-325fb45d21e9}, !- Space Name
  Surface,                                !- Outside Boundary Condition
  {c750d25c-cad2-4eeb-9748-787238161a0c}, !- Outside Boundary Condition Object
  NoSun,                                  !- Sun Exposure
  NoWind,                                 !- Wind Exposure
  ,                                       !- View Factor to Ground
  ,                                       !- Number of Vertices
  0, 0, 6.096,                            !- X,Y,Z Vertex 1 {m}
  0, 0, 0,                                !- X,Y,Z Vertex 2 {m}
  0, 16.764, 0,                           !- X,Y,Z Vertex 3 {m}
  0, 16.764, 6.096;                       !- X,Y,Z Vertex 4 {m}

OS:Surface,
  {ee8dc422-1f98-4f85-b73c-616ffce86270}, !- Handle
  BreakRoom_Slab,                         !- Name
  Floor,                                  !- Surface Type
  ,                                       !- Construction Name
  {57ea2f41-e87c-4434-8981-325fb45d21e9}, !- Space Name
  Ground,                                 !- Outside Boundary Condition
  ,                                       !- Outside Boundary Condition Object
  NoSun,                                  !- Sun Exposure
  NoWind,                                 !- Wind Exposure
  ,                                       !- View Factor to Ground
  ,                                       !- Number of Vertices
  0, 16.764, 0,                           !- X,Y,Z Vertex 1 {m}
  0, 0, 0,                                !- X,Y,Z Vertex 2 {m}
  -10.668, 0, 0,                          !- X,Y,Z Vertex 3 {m}
  -10.668, 16.764, 0;                     !- X,Y,Z Vertex 4 {m}

OS:ThermalZone,
  {0f0f1f1b-9aa7-4664-ac14-755b0cb24684}, !- Handle
  WestPerimeterSales Thermal Zone,        !- Name
  1,                                      !- Multiplier
  ,                                       !- Ceiling Height {m}
  1253.0205,                              !- Volume {m3}
  ,                                       !- Floor Area {m2}
  ,                                       !- Zone Inside Convection Algorithm
  ,                                       !- Zone Outside Convection Algorithm
  ,                                       !- Zone Conditioning Equipment List Name